
[cmd] (cwd=/home/kalel1938/Documents/codex_projects/adaptive_model_reduction/results/high/fom_only/fom_only_case) foamRun -solver incompressibleFluid
/*---------------------------------------------------------------------------*\
  =========                 |
  \\      /  F ield         | OpenFOAM: The Open Source CFD Toolbox
   \\    /   O peration     | Website:  https://openfoam.org
    \\  /    A nd           | Version:  13
     \\/     M anipulation  |
\*---------------------------------------------------------------------------*/
Build  : 13-cde978a97c93
Exec   : foamRun -solver incompressibleFluid
Date   : Dec 18 2025
Time   : 20:53:28
Host   : "kalel1938-asus"
PID    : 677893
I/O    : uncollated
Case   : /home/kalel1938/Documents/codex_projects/adaptive_model_reduction/results/high/fom_only/fom_only_case
nProcs : 1
sigFpe : Enabling floating point exception trapping (FOAM_SIGFPE).
fileModificationChecking : Monitoring run-time modified files using timeStampMaster (fileModificationSkew 10)
allowSystemOperations : Allowing user-supplied system call operations

// * * * * * * * * * * * * * * * * * * * * * * * * * * * * * * * * * * * * * //
Create time

Create mesh for time = 0

Selecting solver incompressibleFluid
Selecting viscosity model constant
Selecting turbulence model type laminar
    Selecting laminar stress model generalisedNewtonian
        Selecting generalised Newtonian model CrossPowerLaw
No MRF models present

Courant Number mean: 0.000135642 max: 0.00345124

PIMPLE: No convergence criteria found


PIMPLE: No corrector convergence criteria found
        Calculations will do 5 corrections


PIMPLE: Operating solver in transient mode with 5 outer correctors



Starting time loop

volFieldValue UminMag read:
    number of cells = 1800
    volume = 73.7233
    operation = minMag

volFieldValue UmaxMag read:
    number of cells = 1800
    volume = 73.7233
    operation = maxMag

volFieldValue pMin read:
    number of cells = 1800
    volume = 73.7233
    operation = min

volFieldValue pMax read:
    number of cells = 1800
    volume = 73.7233
    operation = max

volFieldValue UminMag write:
    minMag(all) of U = 0 at location (0.691932 0.748527 0) in cell 0

volFieldValue UmaxMag write:
    maxMag(all) of U = 0 at location (0.691932 0.748527 0) in cell 0

volFieldValue pMin write:
    min(all) of p = 0 at location (0.691932 0.748527 0) in cell 0

volFieldValue pMax write:
    max(all) of p = 0 at location (0.691932 0.748527 0) in cell 0

Courant Number mean: 0.000135642 max: 0.00345124
Time = 0.0025s

PIMPLE: Iteration 1
GAMG:  Solving for p, Initial residual = 1, Final residual = 6.42789e-07, No Iterations 20
time step continuity errors : sum local = 1.74379e-10, global = -8.62112e-11
PIMPLE: Iteration 2
GAMG:  Solving for p, Initial residual = 0.0747502, Final residual = 3.28522e-07, No Iterations 12
time step continuity errors : sum local = 5.93853e-09, global = -2.99901e-09
PIMPLE: Iteration 3
GAMG:  Solving for p, Initial residual = 0.0124958, Final residual = 5.18557e-07, No Iterations 10
time step continuity errors : sum local = 1.01751e-08, global = -4.98452e-09
PIMPLE: Iteration 4
GAMG:  Solving for p, Initial residual = 0.00493721, Final residual = 9.75189e-07, No Iterations 6
time step continuity errors : sum local = 1.96824e-08, global = -1.00184e-08
PIMPLE: Iteration 5
GAMG:  Solving for p, Initial residual = 0.00159086, Final residual = 9.59096e-07, No Iterations 7
time step continuity errors : sum local = 1.94256e-08, global = 3.21292e-09, cumulative = 3.21292e-09
ExecutionTime = 0.064094 s  ClockTime = 0 s

Courant Number mean: 0.0146437 max: 0.0888395
Time = 0.005s

PIMPLE: Iteration 1
GAMG:  Solving for p, Initial residual = 0.036626, Final residual = 4.21038e-07, No Iterations 14
time step continuity errors : sum local = 7.48113e-09, global = 6.12555e-09
PIMPLE: Iteration 2
GAMG:  Solving for p, Initial residual = 0.236706, Final residual = 3.77245e-07, No Iterations 13
time step continuity errors : sum local = 1.28e-09, global = -1.05019e-09
PIMPLE: Iteration 3
GAMG:  Solving for p, Initial residual = 0.0660617, Final residual = 6.4859e-07, No Iterations 12
time step continuity errors : sum local = 1.84767e-09, global = 1.51517e-09
PIMPLE: Iteration 4
GAMG:  Solving for p, Initial residual = 0.035415, Final residual = 3.5669e-07, No Iterations 12
time step continuity errors : sum local = 9.11871e-10, global = -7.46253e-10
PIMPLE: Iteration 5
GAMG:  Solving for p, Initial residual = 0.0199601, Final residual = 4.60956e-07, No Iterations 9
time step continuity errors : sum local = 1.2721e-09, global = -8.74888e-10, cumulative = 2.33803e-09
ExecutionTime = 0.074562 s  ClockTime = 0 s

Courant Number mean: 0.0148139 max: 0.0881559
Time = 0.0075s

PIMPLE: Iteration 1
GAMG:  Solving for p, Initial residual = 0.0443647, Final residual = 7.97301e-07, No Iterations 13
time step continuity errors : sum local = 2.12556e-09, global = -5.53942e-10
PIMPLE: Iteration 2
GAMG:  Solving for p, Initial residual = 0.0621676, Final residual = 4.01914e-07, No Iterations 13
time step continuity errors : sum local = 4.50745e-10, global = -3.76125e-10
PIMPLE: Iteration 3
GAMG:  Solving for p, Initial residual = 0.0247512, Final residual = 5.39012e-07, No Iterations 11
time step continuity errors : sum local = 6.80843e-10, global = -5.69422e-10
PIMPLE: Iteration 4
GAMG:  Solving for p, Initial residual = 0.0115298, Final residual = 5.05598e-07, No Iterations 11
time step continuity errors : sum local = 7.06032e-10, global = -5.89213e-10
PIMPLE: Iteration 5
GAMG:  Solving for p, Initial residual = 0.00871248, Final residual = 5.74326e-07, No Iterations 9
time step continuity errors : sum local = 8.95416e-10, global = 2.17921e-10, cumulative = 2.55595e-09
ExecutionTime = 0.08472 s  ClockTime = 0 s

Courant Number mean: 0.0149409 max: 0.0791989
Time = 0.01s

PIMPLE: Iteration 1
GAMG:  Solving for p, Initial residual = 0.0440343, Final residual = 5.53621e-07, No Iterations 12
time step continuity errors : sum local = 8.91892e-10, global = 7.45201e-10
PIMPLE: Iteration 2
GAMG:  Solving for p, Initial residual = 0.0374237, Final residual = 4.31848e-07, No Iterations 13
time step continuity errors : sum local = 4.00929e-10, global = -3.33684e-10
PIMPLE: Iteration 3
GAMG:  Solving for p, Initial residual = 0.0150748, Final residual = 4.69495e-07, No Iterations 11
time step continuity errors : sum local = 4.94799e-10, global = -4.13116e-10
PIMPLE: Iteration 4
GAMG:  Solving for p, Initial residual = 0.00827273, Final residual = 5.7184e-07, No Iterations 11
time step continuity errors : sum local = 6.58954e-10, global = -5.48901e-10
PIMPLE: Iteration 5
GAMG:  Solving for p, Initial residual = 0.00686373, Final residual = 5.11762e-07, No Iterations 10
time step continuity errors : sum local = 6.48696e-10, global = -5.43913e-10, cumulative = 2.01204e-09
ExecutionTime = 0.094858 s  ClockTime = 0 s

Courant Number mean: 0.0150743 max: 0.0762946
Time = 0.0125s

PIMPLE: Iteration 1
GAMG:  Solving for p, Initial residual = 0.0319451, Final residual = 4.70103e-07, No Iterations 13
time step continuity errors : sum local = 6.15771e-10, global = 5.22826e-10
PIMPLE: Iteration 2
GAMG:  Solving for p, Initial residual = 0.0254945, Final residual = 4.23575e-07, No Iterations 13
time step continuity errors : sum local = 3.82103e-10, global = -3.24226e-10
PIMPLE: Iteration 3
GAMG:  Solving for p, Initial residual = 0.0111283, Final residual = 4.06343e-07, No Iterations 11
time step continuity errors : sum local = 4.06499e-10, global = -3.465e-10
PIMPLE: Iteration 4
GAMG:  Solving for p, Initial residual = 0.00670206, Final residual = 4.58074e-07, No Iterations 11
time step continuity errors : sum local = 4.93908e-10, global = -4.19822e-10
PIMPLE: Iteration 5
GAMG:  Solving for p, Initial residual = 0.0055525, Final residual = 5.676e-07, No Iterations 10
time step continuity errors : sum local = 6.61527e-10, global = -5.64354e-10, cumulative = 1.44769e-09
ExecutionTime = 0.105127 s  ClockTime = 0 s

Courant Number mean: 0.0151925 max: 0.0762237
Time = 0.015s

PIMPLE: Iteration 1
GAMG:  Solving for p, Initial residual = 0.0238379, Final residual = 5.59826e-07, No Iterations 13
time step continuity errors : sum local = 6.76757e-10, global = 5.82452e-10
PIMPLE: Iteration 2
GAMG:  Solving for p, Initial residual = 0.0203321, Final residual = 8.70665e-07, No Iterations 12
time step continuity errors : sum local = 7.97326e-10, global = 2.77695e-10
PIMPLE: Iteration 3
GAMG:  Solving for p, Initial residual = 0.00908804, Final residual = 7.91145e-07, No Iterations 10
time step continuity errors : sum local = 7.83399e-10, global = 2.73669e-10
PIMPLE: Iteration 4
GAMG:  Solving for p, Initial residual = 0.00576786, Final residual = 9.24815e-07, No Iterations 8
time step continuity errors : sum local = 9.76306e-10, global = -2.06799e-10
PIMPLE: Iteration 5
GAMG:  Solving for p, Initial residual = 0.00488339, Final residual = 5.98368e-07, No Iterations 10
time step continuity errors : sum local = 6.71284e-10, global = -5.79263e-10, cumulative = 8.68424e-10
ExecutionTime = 0.114967 s  ClockTime = 0 s

Courant Number mean: 0.0152973 max: 0.080366
Time = 0.0175s

PIMPLE: Iteration 1
GAMG:  Solving for p, Initial residual = 0.0187559, Final residual = 5.22622e-07, No Iterations 13
time step continuity errors : sum local = 6.0576e-10, global = 5.2225e-10
PIMPLE: Iteration 2
GAMG:  Solving for p, Initial residual = 0.0145578, Final residual = 7.2832e-07, No Iterations 12
time step continuity errors : sum local = 6.91559e-10, global = 2.50533e-10
PIMPLE: Iteration 3
GAMG:  Solving for p, Initial residual = 0.00645981, Final residual = 8.47064e-07, No Iterations 9
time step continuity errors : sum local = 8.44189e-10, global = -7.41809e-10
PIMPLE: Iteration 4
GAMG:  Solving for p, Initial residual = 0.00420164, Final residual = 9.61856e-07, No Iterations 9
time step continuity errors : sum local = 1.00229e-09, global = 3.64795e-10
PIMPLE: Iteration 5
GAMG:  Solving for p, Initial residual = 0.00382515, Final residual = 5.83036e-07, No Iterations 10
time step continuity errors : sum local = 6.37558e-10, global = -5.50452e-10, cumulative = 3.17972e-10
ExecutionTime = 0.124859 s  ClockTime = 0 s

Courant Number mean: 0.0153921 max: 0.0837088
Time = 0.02s

PIMPLE: Iteration 1
GAMG:  Solving for p, Initial residual = 0.015118, Final residual = 4.37603e-07, No Iterations 13
time step continuity errors : sum local = 4.93022e-10, global = 4.25973e-10
PIMPLE: Iteration 2
GAMG:  Solving for p, Initial residual = 0.0122274, Final residual = 8.83085e-07, No Iterations 11
time step continuity errors : sum local = 8.43624e-10, global = -7.287e-10
PIMPLE: Iteration 3
GAMG:  Solving for p, Initial residual = 0.0054477, Final residual = 6.57358e-07, No Iterations 9
time step continuity errors : sum local = 6.53974e-10, global = -5.78282e-10
PIMPLE: Iteration 4
GAMG:  Solving for p, Initial residual = 0.00364991, Final residual = 5.73289e-07, No Iterations 10
time step continuity errors : sum local = 5.93337e-10, global = -5.14913e-10
PIMPLE: Iteration 5
GAMG:  Solving for p, Initial residual = 0.00328497, Final residual = 5.45324e-07, No Iterations 10
time step continuity errors : sum local = 5.86881e-10, global = -5.07874e-10, cumulative = -1.89902e-10
ExecutionTime = 0.134664 s  ClockTime = 0 s

Courant Number mean: 0.0154794 max: 0.0863944
Time = 0.0225s

PIMPLE: Iteration 1
GAMG:  Solving for p, Initial residual = 0.0128574, Final residual = 8.87439e-07, No Iterations 12
time step continuity errors : sum local = 9.79914e-10, global = -3.68327e-10
PIMPLE: Iteration 2
GAMG:  Solving for p, Initial residual = 0.010658, Final residual = 7.5665e-07, No Iterations 11
time step continuity errors : sum local = 7.2447e-10, global = -6.2561e-10
PIMPLE: Iteration 3
GAMG:  Solving for p, Initial residual = 0.00467508, Final residual = 4.15527e-07, No Iterations 9
time step continuity errors : sum local = 4.10807e-10, global = -3.63848e-10
PIMPLE: Iteration 4
GAMG:  Solving for p, Initial residual = 0.00319158, Final residual = 5.70586e-07, No Iterations 10
time step continuity errors : sum local = 5.83296e-10, global = -5.05395e-10
PIMPLE: Iteration 5
GAMG:  Solving for p, Initial residual = 0.00291308, Final residual = 5.13909e-07, No Iterations 10
time step continuity errors : sum local = 5.43309e-10, global = -4.69912e-10, cumulative = -6.59814e-10
ExecutionTime = 0.144447 s  ClockTime = 0 s

Courant Number mean: 0.0155607 max: 0.0885914
Time = 0.025s

PIMPLE: Iteration 1
GAMG:  Solving for p, Initial residual = 0.0111837, Final residual = 7.41197e-07, No Iterations 12
time step continuity errors : sum local = 8.02222e-10, global = -3.04366e-10
PIMPLE: Iteration 2
GAMG:  Solving for p, Initial residual = 0.00938135, Final residual = 6.43627e-07, No Iterations 11
time step continuity errors : sum local = 6.16378e-10, global = -5.31902e-10
PIMPLE: Iteration 3
GAMG:  Solving for p, Initial residual = 0.0041533, Final residual = 7.26016e-07, No Iterations 8
time step continuity errors : sum local = 7.14059e-10, global = 1.2545e-10
PIMPLE: Iteration 4
GAMG:  Solving for p, Initial residual = 0.00285505, Final residual = 5.58862e-07, No Iterations 10
time step continuity errors : sum local = 5.65808e-10, global = -4.89406e-10
PIMPLE: Iteration 5
GAMG:  Solving for p, Initial residual = 0.00259839, Final residual = 4.61486e-07, No Iterations 10
time step continuity errors : sum local = 4.80954e-10, global = -4.15872e-10, cumulative = -1.07569e-09
ExecutionTime = 0.154119 s  ClockTime = 0 s

volFieldValue UminMag write:
    minMag(all) of U = 0.0125958 at location (1.01228 -0.119811 -4.59302e-17) in cell 1180

volFieldValue UmaxMag write:
    maxMag(all) of U = 3.61895 at location (0.0541405 1.56307 0) in cell 410

volFieldValue pMin write:
    min(all) of p = -12.9697 at location (0.829007 -1.05159 0) in cell 1088

volFieldValue pMax write:
    max(all) of p = 379.031 at location (-4.7995 -1.44899 5.65426e-17) in cell 1700

Courant Number mean: 0.0156353 max: 0.0904893
Time = 0.0275s

PIMPLE: Iteration 1
GAMG:  Solving for p, Initial residual = 0.0100911, Final residual = 8.36392e-07, No Iterations 11
time step continuity errors : sum local = 8.90096e-10, global = 7.69094e-10
PIMPLE: Iteration 2
GAMG:  Solving for p, Initial residual = 0.0084336, Final residual = 5.43372e-07, No Iterations 11
time step continuity errors : sum local = 5.19186e-10, global = -4.47451e-10
PIMPLE: Iteration 3
GAMG:  Solving for p, Initial residual = 0.00367216, Final residual = 4.41341e-07, No Iterations 8
time step continuity errors : sum local = 4.31028e-10, global = -1.84929e-10
PIMPLE: Iteration 4
GAMG:  Solving for p, Initial residual = 0.00255959, Final residual = 5.16722e-07, No Iterations 10
time step continuity errors : sum local = 5.17603e-10, global = -4.47016e-10
PIMPLE: Iteration 5
GAMG:  Solving for p, Initial residual = 0.00233291, Final residual = 4.19239e-07, No Iterations 10
time step continuity errors : sum local = 4.30762e-10, global = -3.7206e-10, cumulative = -1.44775e-09
ExecutionTime = 0.163761 s  ClockTime = 0 s

Courant Number mean: 0.0157031 max: 0.0920791
Time = 0.03s

PIMPLE: Iteration 1
GAMG:  Solving for p, Initial residual = 0.00910287, Final residual = 7.19392e-07, No Iterations 11
time step continuity errors : sum local = 7.53216e-10, global = 6.50304e-10
PIMPLE: Iteration 2
GAMG:  Solving for p, Initial residual = 0.00759435, Final residual = 4.5182e-07, No Iterations 11
time step continuity errors : sum local = 4.30292e-10, global = -3.703e-10
PIMPLE: Iteration 3
GAMG:  Solving for p, Initial residual = 0.00331953, Final residual = 4.05193e-07, No Iterations 8
time step continuity errors : sum local = 3.93056e-10, global = -2.46847e-10
PIMPLE: Iteration 4
GAMG:  Solving for p, Initial residual = 0.00230717, Final residual = 4.78264e-07, No Iterations 10
time step continuity errors : sum local = 4.74328e-10, global = -4.08928e-10
PIMPLE: Iteration 5
GAMG:  Solving for p, Initial residual = 0.00209575, Final residual = 9.13203e-07, No Iterations 9
time step continuity errors : sum local = 9.26145e-10, global = 3.57236e-10, cumulative = -1.09051e-09
ExecutionTime = 0.173565 s  ClockTime = 0 s

Courant Number mean: 0.0157649 max: 0.0934222
Time = 0.0325s

PIMPLE: Iteration 1
GAMG:  Solving for p, Initial residual = 0.00831122, Final residual = 6.28655e-07, No Iterations 11
time step continuity errors : sum local = 6.48323e-10, global = 5.59151e-10
PIMPLE: Iteration 2
GAMG:  Solving for p, Initial residual = 0.0068806, Final residual = 9.44901e-07, No Iterations 10
time step continuity errors : sum local = 8.95852e-10, global = 3.45338e-10
PIMPLE: Iteration 3
GAMG:  Solving for p, Initial residual = 0.00295185, Final residual = 4.92227e-07, No Iterations 8
time step continuity errors : sum local = 4.7402e-10, global = -3.81265e-10
PIMPLE: Iteration 4
GAMG:  Solving for p, Initial residual = 0.00207082, Final residual = 4.30593e-07, No Iterations 10
time step continuity errors : sum local = 4.22802e-10, global = -3.63829e-10
PIMPLE: Iteration 5
GAMG:  Solving for p, Initial residual = 0.00188229, Final residual = 8.14863e-07, No Iterations 9
time step continuity errors : sum local = 8.15896e-10, global = 3.16146e-10, cumulative = -7.74364e-10
ExecutionTime = 0.183119 s  ClockTime = 0 s

Courant Number mean: 0.0158215 max: 0.0945657
Time = 0.035s

PIMPLE: Iteration 1
GAMG:  Solving for p, Initial residual = 0.00763576, Final residual = 5.53075e-07, No Iterations 11
time step continuity errors : sum local = 5.62171e-10, global = 4.84218e-10
PIMPLE: Iteration 2
GAMG:  Solving for p, Initial residual = 0.00620556, Final residual = 7.79452e-07, No Iterations 10
time step continuity errors : sum local = 7.35576e-10, global = 2.84529e-10
PIMPLE: Iteration 3
GAMG:  Solving for p, Initial residual = 0.00268688, Final residual = 4.1311e-07, No Iterations 8
time step continuity errors : sum local = 3.9516e-10, global = -3.08965e-10
PIMPLE: Iteration 4
GAMG:  Solving for p, Initial residual = 0.00186704, Final residual = 9.63437e-07, No Iterations 9
time step continuity errors : sum local = 9.37276e-10, global = 3.63665e-10
PIMPLE: Iteration 5
GAMG:  Solving for p, Initial residual = 0.00169121, Final residual = 9.53362e-07, No Iterations 8
time step continuity errors : sum local = 9.43405e-10, global = -8.19949e-10, cumulative = -1.59431e-09
ExecutionTime = 0.192732 s  ClockTime = 0 s

Courant Number mean: 0.0158736 max: 0.0955455
Time = 0.0375s

PIMPLE: Iteration 1
GAMG:  Solving for p, Initial residual = 0.0069042, Final residual = 4.97968e-07, No Iterations 11
time step continuity errors : sum local = 4.99357e-10, global = 4.29178e-10
PIMPLE: Iteration 2
GAMG:  Solving for p, Initial residual = 0.00561878, Final residual = 8.71677e-07, No Iterations 9
time step continuity errors : sum local = 8.1835e-10, global = -7.02408e-10
PIMPLE: Iteration 3
GAMG:  Solving for p, Initial residual = 0.00239098, Final residual = 9.54129e-07, No Iterations 7
time step continuity errors : sum local = 9.06263e-10, global = 8.55393e-11
PIMPLE: Iteration 4
GAMG:  Solving for p, Initial residual = 0.00167224, Final residual = 8.58978e-07, No Iterations 9
time step continuity errors : sum local = 8.28107e-10, global = 3.223e-10
PIMPLE: Iteration 5
GAMG:  Solving for p, Initial residual = 0.00151337, Final residual = 8.29583e-07, No Iterations 8
time step continuity errors : sum local = 8.11747e-10, global = -7.05967e-10, cumulative = -2.30028e-09
ExecutionTime = 0.202145 s  ClockTime = 0 s

Courant Number mean: 0.0159212 max: 0.0963889
Time = 0.04s

PIMPLE: Iteration 1
GAMG:  Solving for p, Initial residual = 0.00627543, Final residual = 4.62935e-07, No Iterations 11
time step continuity errors : sum local = 4.58324e-10, global = 3.92669e-10
PIMPLE: Iteration 2
GAMG:  Solving for p, Initial residual = 0.00506821, Final residual = 6.94321e-07, No Iterations 9
time step continuity errors : sum local = 6.4846e-10, global = -5.5723e-10
PIMPLE: Iteration 3
GAMG:  Solving for p, Initial residual = 0.00219643, Final residual = 7.57966e-07, No Iterations 7
time step continuity errors : sum local = 7.15219e-10, global = -2.41738e-11
PIMPLE: Iteration 4
GAMG:  Solving for p, Initial residual = 0.00150534, Final residual = 9.97978e-07, No Iterations 8
time step continuity errors : sum local = 9.53969e-10, global = -8.22263e-10
PIMPLE: Iteration 5
GAMG:  Solving for p, Initial residual = 0.00135742, Final residual = 7.2563e-07, No Iterations 8
time step continuity errors : sum local = 7.0261e-10, global = -6.11278e-10, cumulative = -2.91156e-09
ExecutionTime = 0.211641 s  ClockTime = 0 s

Courant Number mean: 0.0159642 max: 0.0971174
Time = 0.0425s

PIMPLE: Iteration 1
GAMG:  Solving for p, Initial residual = 0.00574517, Final residual = 4.32082e-07, No Iterations 11
time step continuity errors : sum local = 4.22721e-10, global = 3.60945e-10
PIMPLE: Iteration 2
GAMG:  Solving for p, Initial residual = 0.00459717, Final residual = 6.0267e-07, No Iterations 9
time step continuity errors : sum local = 5.59742e-10, global = -4.80103e-10
PIMPLE: Iteration 3
GAMG:  Solving for p, Initial residual = 0.00194541, Final residual = 6.40767e-07, No Iterations 7
time step continuity errors : sum local = 6.00558e-10, global = -5.39526e-11
PIMPLE: Iteration 4
GAMG:  Solving for p, Initial residual = 0.00134172, Final residual = 8.70904e-07, No Iterations 8
time step continuity errors : sum local = 8.25607e-10, global = -7.10921e-10
PIMPLE: Iteration 5
GAMG:  Solving for p, Initial residual = 0.00120864, Final residual = 6.20984e-07, No Iterations 8
time step continuity errors : sum local = 5.95319e-10, global = -5.18713e-10, cumulative = -3.43027e-09
ExecutionTime = 0.221185 s  ClockTime = 0 s

Courant Number mean: 0.0160027 max: 0.0977482
Time = 0.045s

PIMPLE: Iteration 1
GAMG:  Solving for p, Initial residual = 0.00525092, Final residual = 4.13744e-07, No Iterations 11
time step continuity errors : sum local = 4.0024e-10, global = 3.40439e-10
PIMPLE: Iteration 2
GAMG:  Solving for p, Initial residual = 0.00413288, Final residual = 4.48169e-07, No Iterations 9
time step continuity errors : sum local = 4.14113e-10, global = -3.56378e-10
PIMPLE: Iteration 3
GAMG:  Solving for p, Initial residual = 0.00179234, Final residual = 4.85153e-07, No Iterations 7
time step continuity errors : sum local = 4.51963e-10, global = -2.20413e-10
PIMPLE: Iteration 4
GAMG:  Solving for p, Initial residual = 0.00121019, Final residual = 7.52087e-07, No Iterations 8
time step continuity errors : sum local = 7.07602e-10, global = -6.09699e-10
PIMPLE: Iteration 5
GAMG:  Solving for p, Initial residual = 0.0010809, Final residual = 5.25776e-07, No Iterations 8
time step continuity errors : sum local = 4.99514e-10, global = -4.36026e-10, cumulative = -3.8663e-09
ExecutionTime = 0.230794 s  ClockTime = 0 s

Courant Number mean: 0.0160374 max: 0.0982952
Time = 0.0475s

PIMPLE: Iteration 1
GAMG:  Solving for p, Initial residual = 0.00479159, Final residual = 9.96866e-07, No Iterations 10
time step continuity errors : sum local = 9.54482e-10, global = -3.73786e-10
PIMPLE: Iteration 2
GAMG:  Solving for p, Initial residual = 0.0037547, Final residual = 9.97542e-07, No Iterations 8
time step continuity errors : sum local = 9.16842e-10, global = 3.63828e-10
PIMPLE: Iteration 3
GAMG:  Solving for p, Initial residual = 0.00157977, Final residual = 4.25672e-07, No Iterations 7
time step continuity errors : sum local = 3.94076e-10, global = -2.13754e-10
PIMPLE: Iteration 4
GAMG:  Solving for p, Initial residual = 0.00107341, Final residual = 6.42403e-07, No Iterations 8
time step continuity errors : sum local = 5.99932e-10, global = -5.17437e-10
PIMPLE: Iteration 5
GAMG:  Solving for p, Initial residual = 0.00095641, Final residual = 4.3999e-07, No Iterations 8
time step continuity errors : sum local = 4.14383e-10, global = -3.62331e-10, cumulative = -4.22863e-09
ExecutionTime = 0.240467 s  ClockTime = 0 s

Courant Number mean: 0.0160684 max: 0.0987701
Time = 0.05s

PIMPLE: Iteration 1
GAMG:  Solving for p, Initial residual = 0.00437038, Final residual = 9.81552e-07, No Iterations 10
time step continuity errors : sum local = 9.30755e-10, global = -3.65107e-10
PIMPLE: Iteration 2
GAMG:  Solving for p, Initial residual = 0.00336182, Final residual = 8.17317e-07, No Iterations 7
time step continuity errors : sum local = 7.47547e-10, global = -6.59563e-10
PIMPLE: Iteration 3
GAMG:  Solving for p, Initial residual = 0.00146138, Final residual = 5.53469e-07, No Iterations 7
time step continuity errors : sum local = 5.0951e-10, global = -4.09339e-10
PIMPLE: Iteration 4
GAMG:  Solving for p, Initial residual = 0.000969488, Final residual = 5.37556e-07, No Iterations 8
time step continuity errors : sum local = 4.98652e-10, global = -4.31975e-10
PIMPLE: Iteration 5
GAMG:  Solving for p, Initial residual = 0.000853176, Final residual = 8.74714e-07, No Iterations 7
time step continuity errors : sum local = 8.17376e-10, global = 3.18848e-10, cumulative = -3.90978e-09
ExecutionTime = 0.250024 s  ClockTime = 0 s

volFieldValue UminMag write:
    minMag(all) of U = 0.00636184 at location (-0.999757 -0.198864 -2.4135e-17) in cell 1479

volFieldValue UmaxMag write:
    maxMag(all) of U = 3.81075 at location (0.0541405 1.56307 0) in cell 410

volFieldValue pMin write:
    min(all) of p = -1.40351 at location (1.05849 -0.0415882 0) in cell 1191

volFieldValue pMax write:
    max(all) of p = 340.976 at location (-4.7995 -1.44899 5.65426e-17) in cell 1700

Courant Number mean: 0.0160964 max: 0.0991824
Time = 0.0525s

PIMPLE: Iteration 1
GAMG:  Solving for p, Initial residual = 0.00400939, Final residual = 9.54317e-07, No Iterations 10
time step continuity errors : sum local = 8.96983e-10, global = -3.52406e-10
PIMPLE: Iteration 2
GAMG:  Solving for p, Initial residual = 0.00306096, Final residual = 8.39947e-07, No Iterations 7
time step continuity errors : sum local = 7.64446e-10, global = -6.76632e-10
PIMPLE: Iteration 3
GAMG:  Solving for p, Initial residual = 0.00127616, Final residual = 5.28754e-07, No Iterations 7
time step continuity errors : sum local = 4.84001e-10, global = -4.04899e-10
PIMPLE: Iteration 4
GAMG:  Solving for p, Initial residual = 0.00085318, Final residual = 4.51565e-07, No Iterations 8
time step continuity errors : sum local = 4.16128e-10, global = -3.61326e-10
PIMPLE: Iteration 5
GAMG:  Solving for p, Initial residual = 0.000753559, Final residual = 6.96153e-07, No Iterations 7
time step continuity errors : sum local = 6.45607e-10, global = 2.48635e-10, cumulative = -3.66114e-09
ExecutionTime = 0.25961 s  ClockTime = 0 s

Courant Number mean: 0.0161213 max: 0.0995407
Time = 0.055s

PIMPLE: Iteration 1
GAMG:  Solving for p, Initial residual = 0.00368395, Final residual = 9.30476e-07, No Iterations 10
time step continuity errors : sum local = 8.67359e-10, global = -3.41242e-10
PIMPLE: Iteration 2
GAMG:  Solving for p, Initial residual = 0.00273016, Final residual = 9.56414e-07, No Iterations 6
time step continuity errors : sum local = 8.66636e-10, global = 1.01644e-10
PIMPLE: Iteration 3
GAMG:  Solving for p, Initial residual = 0.00118797, Final residual = 5.59074e-07, No Iterations 7
time step continuity errors : sum local = 5.0924e-10, global = -4.46387e-10
PIMPLE: Iteration 4
GAMG:  Solving for p, Initial residual = 0.000776075, Final residual = 8.81801e-07, No Iterations 7
time step continuity errors : sum local = 8.07847e-10, global = 3.19071e-10
PIMPLE: Iteration 5
GAMG:  Solving for p, Initial residual = 0.000671647, Final residual = 8.71878e-07, No Iterations 6
time step continuity errors : sum local = 8.03165e-10, global = -6.07111e-10, cumulative = -4.26826e-09
ExecutionTime = 0.268626 s  ClockTime = 0 s

Courant Number mean: 0.0161441 max: 0.0998517
Time = 0.0575s

PIMPLE: Iteration 1
GAMG:  Solving for p, Initial residual = 0.00338831, Final residual = 8.90566e-07, No Iterations 10
time step continuity errors : sum local = 8.23937e-10, global = -3.24556e-10
PIMPLE: Iteration 2
GAMG:  Solving for p, Initial residual = 0.00250179, Final residual = 5.5038e-07, No Iterations 7
time step continuity errors : sum local = 4.96487e-10, global = -4.40341e-10
PIMPLE: Iteration 3
GAMG:  Solving for p, Initial residual = 0.00102752, Final residual = 5.09996e-07, No Iterations 7
time step continuity errors : sum local = 4.62182e-10, global = -4.06231e-10
PIMPLE: Iteration 4
GAMG:  Solving for p, Initial residual = 0.000676963, Final residual = 7.31569e-07, No Iterations 7
time step continuity errors : sum local = 6.66346e-10, global = 2.62138e-10
PIMPLE: Iteration 5
GAMG:  Solving for p, Initial residual = 0.000594401, Final residual = 6.43432e-07, No Iterations 6
time step continuity errors : sum local = 5.88869e-10, global = -3.97394e-10, cumulative = -4.66565e-09
ExecutionTime = 0.277901 s  ClockTime = 0 s

Courant Number mean: 0.0161642 max: 0.100122
Time = 0.06s

PIMPLE: Iteration 1
GAMG:  Solving for p, Initial residual = 0.00314313, Final residual = 8.54346e-07, No Iterations 10
time step continuity errors : sum local = 7.84889e-10, global = -3.09543e-10
PIMPLE: Iteration 2
GAMG:  Solving for p, Initial residual = 0.00222695, Final residual = 6.36736e-07, No Iterations 6
time step continuity errors : sum local = 5.72142e-10, global = -4.24574e-10
PIMPLE: Iteration 3
GAMG:  Solving for p, Initial residual = 0.000963659, Final residual = 5.17411e-07, No Iterations 7
time step continuity errors : sum local = 4.66894e-10, global = -4.07586e-10
PIMPLE: Iteration 4
GAMG:  Solving for p, Initial residual = 0.00062358, Final residual = 8.04885e-07, No Iterations 6
time step continuity errors : sum local = 7.29469e-10, global = -5.46807e-10
PIMPLE: Iteration 5
GAMG:  Solving for p, Initial residual = 0.000529197, Final residual = 5.40706e-07, No Iterations 6
time step continuity errors : sum local = 4.92041e-10, global = -3.21541e-10, cumulative = -4.98719e-09
ExecutionTime = 0.286941 s  ClockTime = 0 s

Courant Number mean: 0.0161829 max: 0.100356
Time = 0.0625s

PIMPLE: Iteration 1
GAMG:  Solving for p, Initial residual = 0.00292774, Final residual = 8.13738e-07, No Iterations 10
time step continuity errors : sum local = 7.42909e-10, global = -2.93314e-10
PIMPLE: Iteration 2
GAMG:  Solving for p, Initial residual = 0.00206133, Final residual = 4.34639e-07, No Iterations 7
time step continuity errors : sum local = 3.89007e-10, global = -3.46571e-10
PIMPLE: Iteration 3
GAMG:  Solving for p, Initial residual = 0.000827819, Final residual = 4.63121e-07, No Iterations 7
time step continuity errors : sum local = 4.16096e-10, global = -3.62371e-10
PIMPLE: Iteration 4
GAMG:  Solving for p, Initial residual = 0.000535773, Final residual = 6.73776e-07, No Iterations 6
time step continuity errors : sum local = 6.07675e-10, global = -4.48418e-10
PIMPLE: Iteration 5
GAMG:  Solving for p, Initial residual = 0.000465842, Final residual = 3.98461e-07, No Iterations 6
time step continuity errors : sum local = 3.60634e-10, global = -1.44032e-10, cumulative = -5.13122e-09
ExecutionTime = 0.296104 s  ClockTime = 0 s

Courant Number mean: 0.0161992 max: 0.10056
Time = 0.065s

PIMPLE: Iteration 1
GAMG:  Solving for p, Initial residual = 0.00272932, Final residual = 9.94772e-07, No Iterations 9
time step continuity errors : sum local = 9.02951e-10, global = 7.48159e-10
PIMPLE: Iteration 2
GAMG:  Solving for p, Initial residual = 0.001822, Final residual = 7.86295e-07, No Iterations 6
time step continuity errors : sum local = 7.01529e-10, global = -6.2731e-10
PIMPLE: Iteration 3
GAMG:  Solving for p, Initial residual = 0.000783028, Final residual = 4.7298e-07, No Iterations 7
time step continuity errors : sum local = 4.23467e-10, global = -3.68561e-10
PIMPLE: Iteration 4
GAMG:  Solving for p, Initial residual = 0.000502211, Final residual = 4.41965e-07, No Iterations 6
time step continuity errors : sum local = 3.97024e-10, global = -1.1436e-10
PIMPLE: Iteration 5
GAMG:  Solving for p, Initial residual = 0.000414088, Final residual = 9.9745e-07, No Iterations 5
time step continuity errors : sum local = 8.98713e-10, global = -1.80411e-10, cumulative = -5.31163e-09
ExecutionTime = 0.304997 s  ClockTime = 0 s

Courant Number mean: 0.0162143 max: 0.100737
Time = 0.0675s

PIMPLE: Iteration 1
GAMG:  Solving for p, Initial residual = 0.00251857, Final residual = 9.35605e-07, No Iterations 9
time step continuity errors : sum local = 8.45009e-10, global = 6.9857e-10
PIMPLE: Iteration 2
GAMG:  Solving for p, Initial residual = 0.00170436, Final residual = 9.55001e-07, No Iterations 5
time step continuity errors : sum local = 8.49396e-10, global = -4.46887e-10
PIMPLE: Iteration 3
GAMG:  Solving for p, Initial residual = 0.000666816, Final residual = 4.12844e-07, No Iterations 7
time step continuity errors : sum local = 3.68327e-10, global = -3.206e-10
PIMPLE: Iteration 4
GAMG:  Solving for p, Initial residual = 0.000422984, Final residual = 4.09601e-07, No Iterations 6
time step continuity errors : sum local = 3.66531e-10, global = -4.95988e-11
PIMPLE: Iteration 5
GAMG:  Solving for p, Initial residual = 0.000361126, Final residual = 8.12429e-07, No Iterations 5
time step continuity errors : sum local = 7.28876e-10, global = -2.4327e-10, cumulative = -5.5549e-09
ExecutionTime = 0.31395 s  ClockTime = 0 s

Courant Number mean: 0.0162274 max: 0.10089
Time = 0.07s

PIMPLE: Iteration 1
GAMG:  Solving for p, Initial residual = 0.00241206, Final residual = 9.02336e-07, No Iterations 9
time step continuity errors : sum local = 8.11274e-10, global = 6.68735e-10
PIMPLE: Iteration 2
GAMG:  Solving for p, Initial residual = 0.00149847, Final residual = 7.10621e-07, No Iterations 6
time step continuity errors : sum local = 6.3041e-10, global = -5.61789e-10
PIMPLE: Iteration 3
GAMG:  Solving for p, Initial residual = 0.000640762, Final residual = 4.25147e-07, No Iterations 7
time step continuity errors : sum local = 3.78273e-10, global = -3.28672e-10
PIMPLE: Iteration 4
GAMG:  Solving for p, Initial residual = 0.000406237, Final residual = 9.43774e-07, No Iterations 5
time step continuity errors : sum local = 8.4184e-10, global = -4.3482e-10
PIMPLE: Iteration 5
GAMG:  Solving for p, Initial residual = 0.000321956, Final residual = 8.00529e-07, No Iterations 5
time step continuity errors : sum local = 7.15608e-10, global = -9.44742e-11, cumulative = -5.64938e-09
ExecutionTime = 0.322872 s  ClockTime = 0 s

Courant Number mean: 0.0162395 max: 0.101023
Time = 0.0725s

PIMPLE: Iteration 1
GAMG:  Solving for p, Initial residual = 0.00224964, Final residual = 8.31876e-07, No Iterations 9
time step continuity errors : sum local = 7.4501e-10, global = 6.13336e-10
PIMPLE: Iteration 2
GAMG:  Solving for p, Initial residual = 0.00143692, Final residual = 7.77625e-07, No Iterations 5
time step continuity errors : sum local = 6.88069e-10, global = -3.5725e-10
PIMPLE: Iteration 3
GAMG:  Solving for p, Initial residual = 0.000544465, Final residual = 8.99503e-07, No Iterations 6
time step continuity errors : sum local = 7.9801e-10, global = 3.17936e-10
PIMPLE: Iteration 4
GAMG:  Solving for p, Initial residual = 0.000333378, Final residual = 7.2389e-07, No Iterations 5
time step continuity errors : sum local = 6.43657e-10, global = -2.70223e-10
PIMPLE: Iteration 5
GAMG:  Solving for p, Initial residual = 0.000278706, Final residual = 6.10285e-07, No Iterations 5
time step continuity errors : sum local = 5.43671e-10, global = -2.2074e-10, cumulative = -5.87012e-09
ExecutionTime = 0.331559 s  ClockTime = 0 s

Courant Number mean: 0.0162501 max: 0.101139
Time = 0.075s

PIMPLE: Iteration 1
GAMG:  Solving for p, Initial residual = 0.0021617, Final residual = 8.00915e-07, No Iterations 9
time step continuity errors : sum local = 7.14718e-10, global = 5.87491e-10
PIMPLE: Iteration 2
GAMG:  Solving for p, Initial residual = 0.00124694, Final residual = 6.62035e-07, No Iterations 6
time step continuity errors : sum local = 5.84609e-10, global = -5.21461e-10
PIMPLE: Iteration 3
GAMG:  Solving for p, Initial residual = 0.000532579, Final residual = 8.85554e-07, No Iterations 6
time step continuity errors : sum local = 7.83963e-10, global = 3.15341e-10
PIMPLE: Iteration 4
GAMG:  Solving for p, Initial residual = 0.000333266, Final residual = 8.6986e-07, No Iterations 5
time step continuity errors : sum local = 7.71524e-10, global = -4.86867e-10
PIMPLE: Iteration 5
GAMG:  Solving for p, Initial residual = 0.000251014, Final residual = 5.35442e-07, No Iterations 5
time step continuity errors : sum local = 4.75677e-10, global = -2.03639e-10, cumulative = -6.07376e-09
ExecutionTime = 0.340301 s  ClockTime = 0 s

volFieldValue UminMag write:
    minMag(all) of U = 0.00594482 at location (-0.999757 -0.198864 -2.4135e-17) in cell 1479

volFieldValue UmaxMag write:
    maxMag(all) of U = 3.8501 at location (0.0541405 1.56307 0) in cell 410

volFieldValue pMin write:
    min(all) of p = -0.413951 at location (1.13493 0.320083 -1.9518e-17) in cell 134

volFieldValue pMax write:
    max(all) of p = 325.182 at location (-4.7995 -1.44899 5.65426e-17) in cell 1700

Courant Number mean: 0.01626 max: 0.101238
Time = 0.0775s

PIMPLE: Iteration 1
GAMG:  Solving for p, Initial residual = 0.00207358, Final residual = 6.89736e-07, No Iterations 9
time step continuity errors : sum local = 6.13606e-10, global = 5.04092e-10
PIMPLE: Iteration 2
GAMG:  Solving for p, Initial residual = 0.00123925, Final residual = 6.91827e-07, No Iterations 5
time step continuity errors : sum local = 6.09671e-10, global = -1.30575e-10
PIMPLE: Iteration 3
GAMG:  Solving for p, Initial residual = 0.000451334, Final residual = 7.8558e-07, No Iterations 6
time step continuity errors : sum local = 6.93852e-10, global = 2.80906e-10
PIMPLE: Iteration 4
GAMG:  Solving for p, Initial residual = 0.000263117, Final residual = 6.716e-07, No Iterations 5
time step continuity errors : sum local = 5.94198e-10, global = -3.52814e-10
PIMPLE: Iteration 5
GAMG:  Solving for p, Initial residual = 0.000214615, Final residual = 5.44416e-07, No Iterations 5
time step continuity errors : sum local = 4.82347e-10, global = -2.7023e-10, cumulative = -6.34399e-09
ExecutionTime = 0.348923 s  ClockTime = 0 s

Courant Number mean: 0.0162685 max: 0.101326
Time = 0.08s

PIMPLE: Iteration 1
GAMG:  Solving for p, Initial residual = 0.00200476, Final residual = 6.71535e-07, No Iterations 9
time step continuity errors : sum local = 5.95771e-10, global = 4.89037e-10
PIMPLE: Iteration 2
GAMG:  Solving for p, Initial residual = 0.00106136, Final residual = 6.51358e-07, No Iterations 6
time step continuity errors : sum local = 5.73093e-10, global = -5.12334e-10
PIMPLE: Iteration 3
GAMG:  Solving for p, Initial residual = 0.000449662, Final residual = 7.26484e-07, No Iterations 6
time step continuity errors : sum local = 6.40608e-10, global = 2.59683e-10
PIMPLE: Iteration 4
GAMG:  Solving for p, Initial residual = 0.000280034, Final residual = 8.29843e-07, No Iterations 5
time step continuity errors : sum local = 7.32789e-10, global = -5.34715e-10
PIMPLE: Iteration 5
GAMG:  Solving for p, Initial residual = 0.000197342, Final residual = 4.6688e-07, No Iterations 5
time step continuity errors : sum local = 4.12764e-10, global = -2.28486e-10, cumulative = -6.57247e-09
ExecutionTime = 0.357799 s  ClockTime = 0 s

Courant Number mean: 0.0162767 max: 0.1014
Time = 0.0825s

PIMPLE: Iteration 1
GAMG:  Solving for p, Initial residual = 0.00199364, Final residual = 4.82776e-07, No Iterations 9
time step continuity errors : sum local = 4.27266e-10, global = 3.53149e-10
PIMPLE: Iteration 2
GAMG:  Solving for p, Initial residual = 0.00110239, Final residual = 7.03013e-07, No Iterations 5
time step continuity errors : sum local = 6.17559e-10, global = 6.70188e-12
PIMPLE: Iteration 3
GAMG:  Solving for p, Initial residual = 0.000390208, Final residual = 9.61041e-07, No Iterations 5
time step continuity errors : sum local = 8.45873e-10, global = -7.00109e-10
PIMPLE: Iteration 4
GAMG:  Solving for p, Initial residual = 0.000211176, Final residual = 5.51379e-07, No Iterations 5
time step continuity errors : sum local = 4.85921e-10, global = -3.13564e-10
PIMPLE: Iteration 5
GAMG:  Solving for p, Initial residual = 0.000167741, Final residual = 5.51859e-07, No Iterations 5
time step continuity errors : sum local = 4.86884e-10, global = -3.47267e-10, cumulative = -6.91974e-09
ExecutionTime = 0.36647 s  ClockTime = 0 s

Courant Number mean: 0.0162836 max: 0.101466
Time = 0.085s

PIMPLE: Iteration 1
GAMG:  Solving for p, Initial residual = 0.00198773, Final residual = 4.85409e-07, No Iterations 9
time step continuity errors : sum local = 4.28694e-10, global = 3.51915e-10
PIMPLE: Iteration 2
GAMG:  Solving for p, Initial residual = 0.000933656, Final residual = 6.68268e-07, No Iterations 6
time step continuity errors : sum local = 5.86279e-10, global = -5.23468e-10
PIMPLE: Iteration 3
GAMG:  Solving for p, Initial residual = 0.000391207, Final residual = 7.90619e-07, No Iterations 5
time step continuity errors : sum local = 6.94987e-10, global = -5.7408e-10
PIMPLE: Iteration 4
GAMG:  Solving for p, Initial residual = 0.000244016, Final residual = 7.27064e-07, No Iterations 5
time step continuity errors : sum local = 6.39781e-10, global = -4.878e-10
PIMPLE: Iteration 5
GAMG:  Solving for p, Initial residual = 0.000159154, Final residual = 4.57412e-07, No Iterations 5
time step continuity errors : sum local = 4.02871e-10, global = -2.79894e-10, cumulative = -7.19963e-09
ExecutionTime = 0.37525 s  ClockTime = 0 s

Courant Number mean: 0.0162905 max: 0.101522
Time = 0.0875s

PIMPLE: Iteration 1
GAMG:  Solving for p, Initial residual = 0.00202449, Final residual = 8.21986e-07, No Iterations 6
time step continuity errors : sum local = 7.24528e-10, global = 3.67905e-10
PIMPLE: Iteration 2
GAMG:  Solving for p, Initial residual = 0.00102146, Final residual = 5.76842e-07, No Iterations 5
time step continuity errors : sum local = 5.05491e-10, global = -1.51597e-10
PIMPLE: Iteration 3
GAMG:  Solving for p, Initial residual = 0.000356441, Final residual = 8.56288e-07, No Iterations 5
time step continuity errors : sum local = 7.51578e-10, global = -6.12073e-10
PIMPLE: Iteration 4
GAMG:  Solving for p, Initial residual = 0.000178334, Final residual = 5.49699e-07, No Iterations 5
time step continuity errors : sum local = 4.82972e-10, global = -3.65828e-10
PIMPLE: Iteration 5
GAMG:  Solving for p, Initial residual = 0.00013571, Final residual = 4.58189e-07, No Iterations 5
time step continuity errors : sum local = 4.02899e-10, global = -2.97118e-10, cumulative = -7.49675e-09
ExecutionTime = 0.383512 s  ClockTime = 0 s

Courant Number mean: 0.0162962 max: 0.101572
Time = 0.09s

PIMPLE: Iteration 1
GAMG:  Solving for p, Initial residual = 0.00206012, Final residual = 6.69883e-07, No Iterations 7
time step continuity errors : sum local = 5.89546e-10, global = 5.16189e-10
PIMPLE: Iteration 2
GAMG:  Solving for p, Initial residual = 0.000881909, Final residual = 7.02839e-07, No Iterations 6
time step continuity errors : sum local = 6.15213e-10, global = -5.49544e-10
PIMPLE: Iteration 3
GAMG:  Solving for p, Initial residual = 0.000356848, Final residual = 4.88754e-07, No Iterations 5
time step continuity errors : sum local = 4.28568e-10, global = -3.19034e-10
PIMPLE: Iteration 4
GAMG:  Solving for p, Initial residual = 0.000223898, Final residual = 6.65612e-07, No Iterations 5
time step continuity errors : sum local = 5.84112e-10, global = -4.4538e-10
PIMPLE: Iteration 5
GAMG:  Solving for p, Initial residual = 0.000133609, Final residual = 8.87546e-07, No Iterations 4
time step continuity errors : sum local = 7.79386e-10, global = 9.84548e-11, cumulative = -7.3983e-09
ExecutionTime = 0.391924 s  ClockTime = 0 s

Courant Number mean: 0.0163021 max: 0.101614
Time = 0.0925s

PIMPLE: Iteration 1
GAMG:  Solving for p, Initial residual = 0.00213694, Final residual = 6.76188e-07, No Iterations 8
time step continuity errors : sum local = 5.94115e-10, global = 4.94092e-10
PIMPLE: Iteration 2
GAMG:  Solving for p, Initial residual = 0.000996726, Final residual = 8.25617e-07, No Iterations 5
time step continuity errors : sum local = 7.22134e-10, global = -6.26252e-10
PIMPLE: Iteration 3
GAMG:  Solving for p, Initial residual = 0.00035272, Final residual = 8.01335e-07, No Iterations 5
time step continuity errors : sum local = 7.01827e-10, global = -5.61989e-10
PIMPLE: Iteration 4
GAMG:  Solving for p, Initial residual = 0.000164275, Final residual = 5.18078e-07, No Iterations 5
time step continuity errors : sum local = 4.54132e-10, global = -3.56651e-10
PIMPLE: Iteration 5
GAMG:  Solving for p, Initial residual = 0.000117772, Final residual = 8.65388e-07, No Iterations 4
time step continuity errors : sum local = 7.59014e-10, global = 1.446e-10, cumulative = -7.2537e-09
ExecutionTime = 0.400208 s  ClockTime = 0 s

Courant Number mean: 0.0163068 max: 0.101653
Time = 0.095s

PIMPLE: Iteration 1
GAMG:  Solving for p, Initial residual = 0.00223565, Final residual = 6.18867e-07, No Iterations 8
time step continuity errors : sum local = 5.43189e-10, global = 4.54669e-10
PIMPLE: Iteration 2
GAMG:  Solving for p, Initial residual = 0.000907457, Final residual = 7.09036e-07, No Iterations 6
time step continuity errors : sum local = 6.19551e-10, global = -5.5835e-10
PIMPLE: Iteration 3
GAMG:  Solving for p, Initial residual = 0.000359686, Final residual = 7.27878e-07, No Iterations 4
time step continuity errors : sum local = 6.37034e-10, global = -3.53103e-10
PIMPLE: Iteration 4
GAMG:  Solving for p, Initial residual = 0.000219182, Final residual = 5.73427e-07, No Iterations 5
time step continuity errors : sum local = 5.02132e-10, global = -3.81195e-10
PIMPLE: Iteration 5
GAMG:  Solving for p, Initial residual = 0.000120274, Final residual = 7.97824e-07, No Iterations 4
time step continuity errors : sum local = 6.9902e-10, global = 1.75129e-10, cumulative = -7.07857e-09
ExecutionTime = 0.408689 s  ClockTime = 0 s

Courant Number mean: 0.0163119 max: 0.101684
Time = 0.0975s

PIMPLE: Iteration 1
GAMG:  Solving for p, Initial residual = 0.0023564, Final residual = 5.9008e-07, No Iterations 8
time step continuity errors : sum local = 5.1718e-10, global = 4.33847e-10
PIMPLE: Iteration 2
GAMG:  Solving for p, Initial residual = 0.00102121, Final residual = 9.42833e-07, No Iterations 5
time step continuity errors : sum local = 8.23491e-10, global = -7.30451e-10
PIMPLE: Iteration 3
GAMG:  Solving for p, Initial residual = 0.00037766, Final residual = 7.39874e-07, No Iterations 5
time step continuity errors : sum local = 6.46933e-10, global = -5.13153e-10
PIMPLE: Iteration 4
GAMG:  Solving for p, Initial residual = 0.000166762, Final residual = 9.36737e-07, No Iterations 4
time step continuity errors : sum local = 8.19672e-10, global = 2.0912e-10
PIMPLE: Iteration 5
GAMG:  Solving for p, Initial residual = 0.000111829, Final residual = 7.08937e-07, No Iterations 4
time step continuity errors : sum local = 6.20579e-10, global = 9.08975e-11, cumulative = -6.98767e-09
ExecutionTime = 0.417201 s  ClockTime = 0 s

Courant Number mean: 0.0163158 max: 0.101714
Time = 0.1s

PIMPLE: Iteration 1
GAMG:  Solving for p, Initial residual = 0.00250705, Final residual = 7.24071e-07, No Iterations 8
time step continuity errors : sum local = 6.34273e-10, global = 5.36002e-10
PIMPLE: Iteration 2
GAMG:  Solving for p, Initial residual = 0.000993439, Final residual = 5.8504e-07, No Iterations 6
time step continuity errors : sum local = 5.1051e-10, global = -4.57119e-10
PIMPLE: Iteration 3
GAMG:  Solving for p, Initial residual = 0.000392769, Final residual = 6.75955e-07, No Iterations 4
time step continuity errors : sum local = 5.90737e-10, global = -2.18635e-10
PIMPLE: Iteration 4
GAMG:  Solving for p, Initial residual = 0.00022866, Final residual = 5.17257e-07, No Iterations 5
time step continuity errors : sum local = 4.52207e-10, global = -3.36448e-10
PIMPLE: Iteration 5
GAMG:  Solving for p, Initial residual = 0.000118172, Final residual = 6.38737e-07, No Iterations 4
time step continuity errors : sum local = 5.58661e-10, global = 1.38149e-10, cumulative = -6.84952e-09
ExecutionTime = 0.425739 s  ClockTime = 0 s

volFieldValue UminMag write:
    minMag(all) of U = 0.00657093 at location (1.01228 -0.119811 -4.59302e-17) in cell 1180

volFieldValue UmaxMag write:
    maxMag(all) of U = 3.85945 at location (0.0541405 1.56307 0) in cell 410

volFieldValue pMin write:
    min(all) of p = -0.827506 at location (1.14381 0.421975 2.04088e-17) in cell 145

volFieldValue pMax write:
    max(all) of p = 320.27 at location (-4.7995 -1.44899 5.65426e-17) in cell 1700

Courant Number mean: 0.0163203 max: 0.101736
Time = 0.1025s

PIMPLE: Iteration 1
GAMG:  Solving for p, Initial residual = 0.00267317, Final residual = 6.55249e-07, No Iterations 7
time step continuity errors : sum local = 5.73204e-10, global = 5.04489e-10
PIMPLE: Iteration 2
GAMG:  Solving for p, Initial residual = 0.00108518, Final residual = 8.90285e-07, No Iterations 5
time step continuity errors : sum local = 7.76805e-10, global = -5.97009e-10
PIMPLE: Iteration 3
GAMG:  Solving for p, Initial residual = 0.000427796, Final residual = 5.57129e-07, No Iterations 5
time step continuity errors : sum local = 4.86556e-10, global = -3.82384e-10
PIMPLE: Iteration 4
GAMG:  Solving for p, Initial residual = 0.000182291, Final residual = 6.20863e-07, No Iterations 4
time step continuity errors : sum local = 5.42562e-10, global = 1.69797e-11
PIMPLE: Iteration 5
GAMG:  Solving for p, Initial residual = 0.000115373, Final residual = 6.93092e-07, No Iterations 4
time step continuity errors : sum local = 6.05826e-10, global = 1.31785e-10, cumulative = -6.71774e-09
ExecutionTime = 0.434138 s  ClockTime = 0 s

Courant Number mean: 0.0163235 max: 0.101761
Time = 0.105s

PIMPLE: Iteration 1
GAMG:  Solving for p, Initial residual = 0.00287581, Final residual = 5.44524e-07, No Iterations 8
time step continuity errors : sum local = 4.76294e-10, global = 4.12205e-10
PIMPLE: Iteration 2
GAMG:  Solving for p, Initial residual = 0.00111455, Final residual = 4.9821e-07, No Iterations 6
time step continuity errors : sum local = 4.34278e-10, global = -3.80684e-10
PIMPLE: Iteration 3
GAMG:  Solving for p, Initial residual = 0.000448894, Final residual = 7.47292e-07, No Iterations 4
time step continuity errors : sum local = 6.52373e-10, global = -1.35009e-10
PIMPLE: Iteration 4
GAMG:  Solving for p, Initial residual = 0.000250449, Final residual = 9.8054e-07, No Iterations 4
time step continuity errors : sum local = 8.56169e-10, global = 2.37378e-10
PIMPLE: Iteration 5
GAMG:  Solving for p, Initial residual = 0.000125837, Final residual = 5.34839e-07, No Iterations 4
time step continuity errors : sum local = 4.67153e-10, global = 1.03401e-10, cumulative = -6.61433e-09
ExecutionTime = 0.442528 s  ClockTime = 0 s

Courant Number mean: 0.0163277 max: 0.101777
Time = 0.1075s

PIMPLE: Iteration 1
GAMG:  Solving for p, Initial residual = 0.00306856, Final residual = 5.52731e-07, No Iterations 7
time step continuity errors : sum local = 4.82825e-10, global = 4.28714e-10
PIMPLE: Iteration 2
GAMG:  Solving for p, Initial residual = 0.0011797, Final residual = 7.37358e-07, No Iterations 5
time step continuity errors : sum local = 6.42923e-10, global = -2.15853e-10
PIMPLE: Iteration 3
GAMG:  Solving for p, Initial residual = 0.000494565, Final residual = 8.72176e-07, No Iterations 4
time step continuity errors : sum local = 7.61062e-10, global = -2.66014e-10
PIMPLE: Iteration 4
GAMG:  Solving for p, Initial residual = 0.00020762, Final residual = 5.04479e-07, No Iterations 4
time step continuity errors : sum local = 4.40429e-10, global = -1.38904e-10
PIMPLE: Iteration 5
GAMG:  Solving for p, Initial residual = 0.000125637, Final residual = 7.10725e-07, No Iterations 4
time step continuity errors : sum local = 6.20605e-10, global = 1.79516e-10, cumulative = -6.43482e-09
ExecutionTime = 0.45066 s  ClockTime = 0 s

Courant Number mean: 0.0163304 max: 0.101797
Time = 0.11s

PIMPLE: Iteration 1
GAMG:  Solving for p, Initial residual = 0.00331819, Final residual = 4.23163e-07, No Iterations 7
time step continuity errors : sum local = 3.69759e-10, global = 2.58005e-10
PIMPLE: Iteration 2
GAMG:  Solving for p, Initial residual = 0.00124974, Final residual = 3.52806e-07, No Iterations 6
time step continuity errors : sum local = 3.07285e-10, global = -8.73529e-11
PIMPLE: Iteration 3
GAMG:  Solving for p, Initial residual = 0.000519675, Final residual = 9.96625e-07, No Iterations 4
time step continuity errors : sum local = 8.69338e-10, global = 4.05015e-10
PIMPLE: Iteration 4
GAMG:  Solving for p, Initial residual = 0.000279373, Final residual = 6.95598e-07, No Iterations 4
time step continuity errors : sum local = 6.06833e-10, global = -2.47836e-11
PIMPLE: Iteration 5
GAMG:  Solving for p, Initial residual = 0.000140658, Final residual = 9.90991e-07, No Iterations 3
time step continuity errors : sum local = 8.64675e-10, global = -2.4034e-10, cumulative = -6.67516e-09
ExecutionTime = 0.458923 s  ClockTime = 0 s

Courant Number mean: 0.0163342 max: 0.101807
Time = 0.1125s

PIMPLE: Iteration 1
GAMG:  Solving for p, Initial residual = 0.00351156, Final residual = 9.3344e-07, No Iterations 6
time step continuity errors : sum local = 8.14459e-10, global = -9.65636e-11
PIMPLE: Iteration 2
GAMG:  Solving for p, Initial residual = 0.0012835, Final residual = 6.76964e-07, No Iterations 5
time step continuity errors : sum local = 5.90037e-10, global = -2.24152e-10
PIMPLE: Iteration 3
GAMG:  Solving for p, Initial residual = 0.00056905, Final residual = 6.26119e-07, No Iterations 5
time step continuity errors : sum local = 5.46047e-10, global = 1.82447e-10
PIMPLE: Iteration 4
GAMG:  Solving for p, Initial residual = 0.000238793, Final residual = 5.15704e-07, No Iterations 4
time step continuity errors : sum local = 4.49978e-10, global = -5.7813e-11
PIMPLE: Iteration 5
GAMG:  Solving for p, Initial residual = 0.000141415, Final residual = 6.86803e-07, No Iterations 4
time step continuity errors : sum local = 5.99286e-10, global = 1.70239e-10, cumulative = -6.50492e-09
ExecutionTime = 0.467053 s  ClockTime = 0 s

Courant Number mean: 0.0163364 max: 0.101824
Time = 0.115s

PIMPLE: Iteration 1
GAMG:  Solving for p, Initial residual = 0.0037777, Final residual = 9.1339e-07, No Iterations 7
time step continuity errors : sum local = 7.97578e-10, global = 7.09082e-10
PIMPLE: Iteration 2
GAMG:  Solving for p, Initial residual = 0.00137858, Final residual = 7.90453e-07, No Iterations 6
time step continuity errors : sum local = 6.88105e-10, global = 2.41088e-10
PIMPLE: Iteration 3
GAMG:  Solving for p, Initial residual = 0.000595643, Final residual = 5.37733e-07, No Iterations 5
time step continuity errors : sum local = 4.68753e-10, global = -1.42739e-10
PIMPLE: Iteration 4
GAMG:  Solving for p, Initial residual = 0.000310114, Final residual = 6.77826e-07, No Iterations 4
time step continuity errors : sum local = 5.90892e-10, global = -9.9061e-12
PIMPLE: Iteration 5
GAMG:  Solving for p, Initial residual = 0.000160362, Final residual = 7.83089e-07, No Iterations 3
time step continuity errors : sum local = 6.82779e-10, global = -6.44705e-11, cumulative = -6.56939e-09
ExecutionTime = 0.475303 s  ClockTime = 0 s

Courant Number mean: 0.01634 max: 0.101831
Time = 0.1175s

PIMPLE: Iteration 1
GAMG:  Solving for p, Initial residual = 0.00395622, Final residual = 3.78377e-07, No Iterations 7
time step continuity errors : sum local = 3.2989e-10, global = -1.58548e-10
PIMPLE: Iteration 2
GAMG:  Solving for p, Initial residual = 0.00137516, Final residual = 7.64035e-07, No Iterations 5
time step continuity errors : sum local = 6.65724e-10, global = -1.5788e-10
PIMPLE: Iteration 3
GAMG:  Solving for p, Initial residual = 0.000639587, Final residual = 7.0894e-07, No Iterations 5
time step continuity errors : sum local = 6.18072e-10, global = 2.2606e-10
PIMPLE: Iteration 4
GAMG:  Solving for p, Initial residual = 0.000266992, Final residual = 6.93264e-07, No Iterations 4
time step continuity errors : sum local = 6.04656e-10, global = -7.88651e-11
PIMPLE: Iteration 5
GAMG:  Solving for p, Initial residual = 0.000157196, Final residual = 6.0798e-07, No Iterations 4
time step continuity errors : sum local = 5.30261e-10, global = 1.13888e-10, cumulative = -6.4555e-09
ExecutionTime = 0.483487 s  ClockTime = 0 s

Courant Number mean: 0.0163419 max: 0.101846
Time = 0.12s

PIMPLE: Iteration 1
GAMG:  Solving for p, Initial residual = 0.0041988, Final residual = 9.17039e-07, No Iterations 8
time step continuity errors : sum local = 8.0036e-10, global = -3.20821e-10
PIMPLE: Iteration 2
GAMG:  Solving for p, Initial residual = 0.00148867, Final residual = 8.05828e-07, No Iterations 6
time step continuity errors : sum local = 7.01171e-10, global = 2.32876e-10
PIMPLE: Iteration 3
GAMG:  Solving for p, Initial residual = 0.00066778, Final residual = 4.03933e-07, No Iterations 5
time step continuity errors : sum local = 3.51963e-10, global = 5.66699e-11
PIMPLE: Iteration 4
GAMG:  Solving for p, Initial residual = 0.000340058, Final residual = 6.90773e-07, No Iterations 4
time step continuity errors : sum local = 6.01843e-10, global = -6.49254e-11
PIMPLE: Iteration 5
GAMG:  Solving for p, Initial residual = 0.000179859, Final residual = 8.21799e-07, No Iterations 3
time step continuity errors : sum local = 7.16113e-10, global = -4.01048e-11, cumulative = -6.49561e-09
ExecutionTime = 0.491756 s  ClockTime = 0 s

Courant Number mean: 0.0163453 max: 0.101849
Time = 0.1225s

PIMPLE: Iteration 1
GAMG:  Solving for p, Initial residual = 0.00436368, Final residual = 7.22971e-07, No Iterations 7
time step continuity errors : sum local = 6.29966e-10, global = -5.25296e-10
PIMPLE: Iteration 2
GAMG:  Solving for p, Initial residual = 0.00145164, Final residual = 8.23134e-07, No Iterations 5
time step continuity errors : sum local = 7.17094e-10, global = -1.88251e-10
PIMPLE: Iteration 3
GAMG:  Solving for p, Initial residual = 0.000699793, Final residual = 7.17897e-07, No Iterations 5
time step continuity errors : sum local = 6.2574e-10, global = 2.23008e-10
PIMPLE: Iteration 4
GAMG:  Solving for p, Initial residual = 0.000292751, Final residual = 7.72654e-07, No Iterations 4
time step continuity errors : sum local = 6.73715e-10, global = -1.1866e-11
PIMPLE: Iteration 5
GAMG:  Solving for p, Initial residual = 0.000171636, Final residual = 5.64481e-07, No Iterations 4
time step continuity errors : sum local = 4.92176e-10, global = -1.3788e-10, cumulative = -6.63349e-09
ExecutionTime = 0.499993 s  ClockTime = 0 s

Courant Number mean: 0.0163469 max: 0.101862
Time = 0.125s

PIMPLE: Iteration 1
GAMG:  Solving for p, Initial residual = 0.00455136, Final residual = 3.83162e-07, No Iterations 9
time step continuity errors : sum local = 3.34288e-10, global = 2.84447e-10
PIMPLE: Iteration 2
GAMG:  Solving for p, Initial residual = 0.00157335, Final residual = 8.05821e-07, No Iterations 6
time step continuity errors : sum local = 7.00949e-10, global = 2.15573e-10
PIMPLE: Iteration 3
GAMG:  Solving for p, Initial residual = 0.000726643, Final residual = 4.97895e-07, No Iterations 5
time step continuity errors : sum local = 4.33689e-10, global = 2.48411e-10
PIMPLE: Iteration 4
GAMG:  Solving for p, Initial residual = 0.000364638, Final residual = 7.51487e-07, No Iterations 4
time step continuity errors : sum local = 6.54464e-10, global = -1.31163e-10
PIMPLE: Iteration 5
GAMG:  Solving for p, Initial residual = 0.00019759, Final residual = 8.27234e-07, No Iterations 3
time step continuity errors : sum local = 7.2052e-10, global = -6.09476e-11, cumulative = -6.69443e-09
ExecutionTime = 0.508344 s  ClockTime = 0 s

volFieldValue UminMag write:
    minMag(all) of U = 0.0033117 at location (1.01228 -0.119811 -4.59302e-17) in cell 1180

volFieldValue UmaxMag write:
    maxMag(all) of U = 3.8618 at location (0.0541405 1.56307 0) in cell 410

volFieldValue pMin write:
    min(all) of p = -1.04306 at location (1.14381 0.421975 2.04088e-17) in cell 145

volFieldValue pMax write:
    max(all) of p = 318.67 at location (-4.7995 -1.44899 5.65426e-17) in cell 1700

Courant Number mean: 0.0163501 max: 0.101863
Time = 0.1275s

PIMPLE: Iteration 1
GAMG:  Solving for p, Initial residual = 0.00472586, Final residual = 6.62063e-07, No Iterations 7
time step continuity errors : sum local = 5.76631e-10, global = 1.05871e-10
PIMPLE: Iteration 2
GAMG:  Solving for p, Initial residual = 0.00151251, Final residual = 9.00159e-07, No Iterations 5
time step continuity errors : sum local = 7.8412e-10, global = -2.37066e-10
PIMPLE: Iteration 3
GAMG:  Solving for p, Initial residual = 0.000748212, Final residual = 7.08819e-07, No Iterations 5
time step continuity errors : sum local = 6.17705e-10, global = 2.09241e-10
PIMPLE: Iteration 4
GAMG:  Solving for p, Initial residual = 0.000314394, Final residual = 8.24539e-07, No Iterations 4
time step continuity errors : sum local = 7.18776e-10, global = 1.01787e-10
PIMPLE: Iteration 5
GAMG:  Solving for p, Initial residual = 0.000184016, Final residual = 5.92753e-07, No Iterations 4
time step continuity errors : sum local = 5.16686e-10, global = -1.41734e-10, cumulative = -6.83617e-09
ExecutionTime = 0.51662 s  ClockTime = 0 s

Courant Number mean: 0.0163515 max: 0.101875
Time = 0.13s

PIMPLE: Iteration 1
GAMG:  Solving for p, Initial residual = 0.004845, Final residual = 3.98892e-07, No Iterations 9
time step continuity errors : sum local = 3.47897e-10, global = 2.96127e-10
PIMPLE: Iteration 2
GAMG:  Solving for p, Initial residual = 0.00163894, Final residual = 7.98737e-07, No Iterations 6
time step continuity errors : sum local = 6.94566e-10, global = 1.94338e-10
PIMPLE: Iteration 3
GAMG:  Solving for p, Initial residual = 0.000772343, Final residual = 6.18436e-07, No Iterations 5
time step continuity errors : sum local = 5.38497e-10, global = 3.57806e-10
PIMPLE: Iteration 4
GAMG:  Solving for p, Initial residual = 0.000383573, Final residual = 8.19988e-07, No Iterations 4
time step continuity errors : sum local = 7.13827e-10, global = -1.87354e-10
PIMPLE: Iteration 5
GAMG:  Solving for p, Initial residual = 0.000211855, Final residual = 8.47411e-07, No Iterations 3
time step continuity errors : sum local = 7.37766e-10, global = -7.25818e-11, cumulative = -6.90875e-09
ExecutionTime = 0.525028 s  ClockTime = 0 s

Courant Number mean: 0.0163547 max: 0.101875
Time = 0.1325s

PIMPLE: Iteration 1
GAMG:  Solving for p, Initial residual = 0.00499999, Final residual = 4.99377e-07, No Iterations 8
time step continuity errors : sum local = 4.34757e-10, global = -3.77027e-10
PIMPLE: Iteration 2
GAMG:  Solving for p, Initial residual = 0.00155871, Final residual = 9.6826e-07, No Iterations 5
time step continuity errors : sum local = 8.43333e-10, global = -2.05541e-10
PIMPLE: Iteration 3
GAMG:  Solving for p, Initial residual = 0.000785677, Final residual = 6.64264e-07, No Iterations 5
time step continuity errors : sum local = 5.78777e-10, global = 1.70323e-10
PIMPLE: Iteration 4
GAMG:  Solving for p, Initial residual = 0.000331672, Final residual = 9.1672e-07, No Iterations 4
time step continuity errors : sum local = 7.98954e-10, global = 2.07764e-10
PIMPLE: Iteration 5
GAMG:  Solving for p, Initial residual = 0.000194526, Final residual = 5.69332e-07, No Iterations 4
time step continuity errors : sum local = 4.96146e-10, global = -3.63324e-11, cumulative = -6.94508e-09
ExecutionTime = 0.533286 s  ClockTime = 0 s

Courant Number mean: 0.0163559 max: 0.101885
Time = 0.135s

PIMPLE: Iteration 1
GAMG:  Solving for p, Initial residual = 0.00504431, Final residual = 4.06323e-07, No Iterations 9
time step continuity errors : sum local = 3.54287e-10, global = 3.01603e-10
PIMPLE: Iteration 2
GAMG:  Solving for p, Initial residual = 0.00168621, Final residual = 7.55313e-07, No Iterations 6
time step continuity errors : sum local = 6.56662e-10, global = 1.46219e-10
PIMPLE: Iteration 3
GAMG:  Solving for p, Initial residual = 0.000806191, Final residual = 7.0547e-07, No Iterations 5
time step continuity errors : sum local = 6.14132e-10, global = 4.34756e-10
PIMPLE: Iteration 4
GAMG:  Solving for p, Initial residual = 0.000398072, Final residual = 8.66223e-07, No Iterations 4
time step continuity errors : sum local = 7.53856e-10, global = -2.19627e-10
PIMPLE: Iteration 5
GAMG:  Solving for p, Initial residual = 0.000222806, Final residual = 9.08862e-07, No Iterations 3
time step continuity errors : sum local = 7.91015e-10, global = -6.64352e-11, cumulative = -7.01152e-09
ExecutionTime = 0.541729 s  ClockTime = 0 s

Courant Number mean: 0.0163589 max: 0.101883
Time = 0.1375s

PIMPLE: Iteration 1
GAMG:  Solving for p, Initial residual = 0.00521703, Final residual = 6.03372e-07, No Iterations 8
time step continuity errors : sum local = 5.25138e-10, global = -4.56298e-10
PIMPLE: Iteration 2
GAMG:  Solving for p, Initial residual = 0.00159116, Final residual = 2.60128e-07, No Iterations 6
time step continuity errors : sum local = 2.26548e-10, global = -1.40876e-11
PIMPLE: Iteration 3
GAMG:  Solving for p, Initial residual = 0.000813288, Final residual = 6.12505e-07, No Iterations 5
time step continuity errors : sum local = 5.33617e-10, global = 1.20643e-10
PIMPLE: Iteration 4
GAMG:  Solving for p, Initial residual = 0.000345417, Final residual = 4.26978e-07, No Iterations 5
time step continuity errors : sum local = 3.72068e-10, global = -8.77152e-11
PIMPLE: Iteration 5
GAMG:  Solving for p, Initial residual = 0.000203385, Final residual = 6.05356e-07, No Iterations 4
time step continuity errors : sum local = 5.27424e-10, global = -1.65349e-10, cumulative = -7.17687e-09
ExecutionTime = 0.550191 s  ClockTime = 0 s

Courant Number mean: 0.01636 max: 0.101893
Time = 0.14s

PIMPLE: Iteration 1
GAMG:  Solving for p, Initial residual = 0.00522247, Final residual = 4.06645e-07, No Iterations 9
time step continuity errors : sum local = 3.54501e-10, global = 3.01775e-10
PIMPLE: Iteration 2
GAMG:  Solving for p, Initial residual = 0.00171914, Final residual = 7.06013e-07, No Iterations 6
time step continuity errors : sum local = 6.13714e-10, global = 8.98404e-11
PIMPLE: Iteration 3
GAMG:  Solving for p, Initial residual = 0.000830836, Final residual = 7.70377e-07, No Iterations 5
time step continuity errors : sum local = 6.70519e-10, global = 4.90453e-10
PIMPLE: Iteration 4
GAMG:  Solving for p, Initial residual = 0.000409125, Final residual = 9.00568e-07, No Iterations 4
time step continuity errors : sum local = 7.83581e-10, global = -2.38159e-10
PIMPLE: Iteration 5
GAMG:  Solving for p, Initial residual = 0.000231152, Final residual = 9.79225e-07, No Iterations 3
time step continuity errors : sum local = 8.52059e-10, global = -5.40386e-11, cumulative = -7.23091e-09
ExecutionTime = 0.558614 s  ClockTime = 0 s

Courant Number mean: 0.0163629 max: 0.10189
Time = 0.1425s

PIMPLE: Iteration 1
GAMG:  Solving for p, Initial residual = 0.00539922, Final residual = 6.35189e-07, No Iterations 8
time step continuity errors : sum local = 5.52705e-10, global = -4.80099e-10
PIMPLE: Iteration 2
GAMG:  Solving for p, Initial residual = 0.00161505, Final residual = 2.97899e-07, No Iterations 6
time step continuity errors : sum local = 2.59428e-10, global = 4.11425e-11
PIMPLE: Iteration 3
GAMG:  Solving for p, Initial residual = 0.000833168, Final residual = 5.95297e-07, No Iterations 5
time step continuity errors : sum local = 5.18562e-10, global = 9.76096e-11
PIMPLE: Iteration 4
GAMG:  Solving for p, Initial residual = 0.000355999, Final residual = 4.53586e-07, No Iterations 5
time step continuity errors : sum local = 3.95196e-10, global = -1.03868e-10
PIMPLE: Iteration 5
GAMG:  Solving for p, Initial residual = 0.000209906, Final residual = 5.97955e-07, No Iterations 4
time step continuity errors : sum local = 5.20891e-10, global = -1.37207e-10, cumulative = -7.36811e-09
ExecutionTime = 0.56712 s  ClockTime = 0 s

Courant Number mean: 0.0163639 max: 0.1019
Time = 0.145s

PIMPLE: Iteration 1
GAMG:  Solving for p, Initial residual = 0.00533811, Final residual = 4.05144e-07, No Iterations 9
time step continuity errors : sum local = 3.53129e-10, global = 3.00657e-10
PIMPLE: Iteration 2
GAMG:  Solving for p, Initial residual = 0.00174222, Final residual = 6.5005e-07, No Iterations 6
time step continuity errors : sum local = 5.64985e-10, global = 2.57059e-11
PIMPLE: Iteration 3
GAMG:  Solving for p, Initial residual = 0.000848384, Final residual = 7.99314e-07, No Iterations 5
time step continuity errors : sum local = 6.95584e-10, global = 5.11587e-10
PIMPLE: Iteration 4
GAMG:  Solving for p, Initial residual = 0.000417058, Final residual = 9.24091e-07, No Iterations 4
time step continuity errors : sum local = 8.03888e-10, global = -2.45874e-10
PIMPLE: Iteration 5
GAMG:  Solving for p, Initial residual = 0.000237367, Final residual = 4.51745e-07, No Iterations 4
time step continuity errors : sum local = 3.92996e-10, global = 1.55077e-10, cumulative = -7.21304e-09
ExecutionTime = 0.57565 s  ClockTime = 0 s

Courant Number mean: 0.0163667 max: 0.101896
Time = 0.1475s

PIMPLE: Iteration 1
GAMG:  Solving for p, Initial residual = 0.00549794, Final residual = 6.49695e-07, No Iterations 8
time step continuity errors : sum local = 5.65197e-10, global = -4.91648e-10
PIMPLE: Iteration 2
GAMG:  Solving for p, Initial residual = 0.00163105, Final residual = 3.30983e-07, No Iterations 6
time step continuity errors : sum local = 2.88229e-10, global = 4.25408e-11
PIMPLE: Iteration 3
GAMG:  Solving for p, Initial residual = 0.000848413, Final residual = 5.86524e-07, No Iterations 5
time step continuity errors : sum local = 5.1086e-10, global = 8.20684e-11
PIMPLE: Iteration 4
GAMG:  Solving for p, Initial residual = 0.000364823, Final residual = 4.7026e-07, No Iterations 5
time step continuity errors : sum local = 4.09669e-10, global = -1.13028e-10
PIMPLE: Iteration 5
GAMG:  Solving for p, Initial residual = 0.000215291, Final residual = 5.92761e-07, No Iterations 4
time step continuity errors : sum local = 5.16289e-10, global = -1.21776e-10, cumulative = -7.33481e-09
ExecutionTime = 0.584096 s  ClockTime = 0 s

Courant Number mean: 0.0163677 max: 0.101905
Time = 0.15s

PIMPLE: Iteration 1
GAMG:  Solving for p, Initial residual = 0.00543409, Final residual = 4.00882e-07, No Iterations 9
time step continuity errors : sum local = 3.49358e-10, global = 2.97505e-10
PIMPLE: Iteration 2
GAMG:  Solving for p, Initial residual = 0.00175702, Final residual = 5.92596e-07, No Iterations 6
time step continuity errors : sum local = 5.14991e-10, global = -4.23509e-11
PIMPLE: Iteration 3
GAMG:  Solving for p, Initial residual = 0.000861348, Final residual = 8.19566e-07, No Iterations 5
time step continuity errors : sum local = 7.13108e-10, global = 5.25606e-10
PIMPLE: Iteration 4
GAMG:  Solving for p, Initial residual = 0.000423148, Final residual = 9.41026e-07, No Iterations 4
time step continuity errors : sum local = 8.18488e-10, global = -2.47385e-10
PIMPLE: Iteration 5
GAMG:  Solving for p, Initial residual = 0.000242037, Final residual = 4.71964e-07, No Iterations 4
time step continuity errors : sum local = 4.10516e-10, global = 1.53813e-10, cumulative = -7.181e-09
ExecutionTime = 0.592678 s  ClockTime = 0 s

volFieldValue UminMag write:
    minMag(all) of U = 0.00433303 at location (1.01228 -0.119811 -4.59302e-17) in cell 1180

volFieldValue UmaxMag write:
    maxMag(all) of U = 3.86245 at location (0.0541405 1.56307 0) in cell 410

volFieldValue pMin write:
    min(all) of p = -1.18206 at location (1.14381 0.421975 2.04088e-17) in cell 145

volFieldValue pMax write:
    max(all) of p = 318.103 at location (-4.7995 -1.44899 5.65426e-17) in cell 1700

Courant Number mean: 0.0163704 max: 0.1019
Time = 0.1525s

PIMPLE: Iteration 1
GAMG:  Solving for p, Initial residual = 0.00558819, Final residual = 6.38468e-07, No Iterations 8
time step continuity errors : sum local = 5.55336e-10, global = -4.85096e-10
PIMPLE: Iteration 2
GAMG:  Solving for p, Initial residual = 0.00164137, Final residual = 3.36564e-07, No Iterations 6
time step continuity errors : sum local = 2.93073e-10, global = -2.13713e-12
PIMPLE: Iteration 3
GAMG:  Solving for p, Initial residual = 0.000858664, Final residual = 5.82358e-07, No Iterations 5
time step continuity errors : sum local = 5.07174e-10, global = 7.2865e-11
PIMPLE: Iteration 4
GAMG:  Solving for p, Initial residual = 0.000371306, Final residual = 4.76978e-07, No Iterations 5
time step continuity errors : sum local = 4.15469e-10, global = -1.14622e-10
PIMPLE: Iteration 5
GAMG:  Solving for p, Initial residual = 0.000219255, Final residual = 5.86743e-07, No Iterations 4
time step continuity errors : sum local = 5.10977e-10, global = -1.00101e-10, cumulative = -7.2811e-09
ExecutionTime = 0.601353 s  ClockTime = 0 s

Courant Number mean: 0.0163713 max: 0.101909
Time = 0.155s

PIMPLE: Iteration 1
GAMG:  Solving for p, Initial residual = 0.00550743, Final residual = 3.95838e-07, No Iterations 9
time step continuity errors : sum local = 3.44912e-10, global = 2.93833e-10
PIMPLE: Iteration 2
GAMG:  Solving for p, Initial residual = 0.00176594, Final residual = 5.47675e-07, No Iterations 6
time step continuity errors : sum local = 4.75905e-10, global = -1.06482e-10
PIMPLE: Iteration 3
GAMG:  Solving for p, Initial residual = 0.000870572, Final residual = 8.26834e-07, No Iterations 5
time step continuity errors : sum local = 7.1934e-10, global = 5.28283e-10
PIMPLE: Iteration 4
GAMG:  Solving for p, Initial residual = 0.000427563, Final residual = 9.53348e-07, No Iterations 4
time step continuity errors : sum local = 8.29088e-10, global = -2.45401e-10
PIMPLE: Iteration 5
GAMG:  Solving for p, Initial residual = 0.000245532, Final residual = 4.86883e-07, No Iterations 4
time step continuity errors : sum local = 4.23429e-10, global = 1.52999e-10, cumulative = -7.1281e-09
ExecutionTime = 0.609919 s  ClockTime = 0 s

Courant Number mean: 0.0163739 max: 0.101904
Time = 0.1575s

PIMPLE: Iteration 1
GAMG:  Solving for p, Initial residual = 0.00565482, Final residual = 6.20768e-07, No Iterations 8
time step continuity errors : sum local = 5.39858e-10, global = -4.73412e-10
PIMPLE: Iteration 2
GAMG:  Solving for p, Initial residual = 0.00164771, Final residual = 3.74527e-07, No Iterations 6
time step continuity errors : sum local = 3.26111e-10, global = -4.24491e-11
PIMPLE: Iteration 3
GAMG:  Solving for p, Initial residual = 0.000866065, Final residual = 5.79471e-07, No Iterations 5
time step continuity errors : sum local = 5.04604e-10, global = 6.61037e-11
PIMPLE: Iteration 4
GAMG:  Solving for p, Initial residual = 0.0003763, Final residual = 4.81058e-07, No Iterations 5
time step continuity errors : sum local = 4.18974e-10, global = -1.15012e-10
PIMPLE: Iteration 5
GAMG:  Solving for p, Initial residual = 0.000222357, Final residual = 5.81956e-07, No Iterations 4
time step continuity errors : sum local = 5.06744e-10, global = -8.20589e-11, cumulative = -7.21016e-09
ExecutionTime = 0.618459 s  ClockTime = 0 s

Courant Number mean: 0.0163747 max: 0.101912
Time = 0.16s

PIMPLE: Iteration 1
GAMG:  Solving for p, Initial residual = 0.0055608, Final residual = 3.90065e-07, No Iterations 9
time step continuity errors : sum local = 3.39837e-10, global = 2.89658e-10
PIMPLE: Iteration 2
GAMG:  Solving for p, Initial residual = 0.00177065, Final residual = 5.21859e-07, No Iterations 6
time step continuity errors : sum local = 4.53431e-10, global = -1.66008e-10
PIMPLE: Iteration 3
GAMG:  Solving for p, Initial residual = 0.000877173, Final residual = 8.27338e-07, No Iterations 5
time step continuity errors : sum local = 7.19693e-10, global = 5.25366e-10
PIMPLE: Iteration 4
GAMG:  Solving for p, Initial residual = 0.000430867, Final residual = 9.61848e-07, No Iterations 4
time step continuity errors : sum local = 8.36372e-10, global = -2.41523e-10
PIMPLE: Iteration 5
GAMG:  Solving for p, Initial residual = 0.000248187, Final residual = 4.98169e-07, No Iterations 4
time step continuity errors : sum local = 4.33185e-10, global = 1.52283e-10, cumulative = -7.05788e-09
ExecutionTime = 0.627039 s  ClockTime = 0 s

Courant Number mean: 0.0163773 max: 0.101907
Time = 0.1625s

PIMPLE: Iteration 1
GAMG:  Solving for p, Initial residual = 0.00570425, Final residual = 5.99441e-07, No Iterations 8
time step continuity errors : sum local = 5.21242e-10, global = -4.5838e-10
PIMPLE: Iteration 2
GAMG:  Solving for p, Initial residual = 0.00165096, Final residual = 4.1968e-07, No Iterations 6
time step continuity errors : sum local = 3.65407e-10, global = -7.22891e-11
PIMPLE: Iteration 3
GAMG:  Solving for p, Initial residual = 0.000871499, Final residual = 5.76872e-07, No Iterations 5
time step continuity errors : sum local = 5.0229e-10, global = 6.05313e-11
PIMPLE: Iteration 4
GAMG:  Solving for p, Initial residual = 0.000380228, Final residual = 4.83639e-07, No Iterations 5
time step continuity errors : sum local = 4.21174e-10, global = -1.14972e-10
PIMPLE: Iteration 5
GAMG:  Solving for p, Initial residual = 0.000224734, Final residual = 5.78058e-07, No Iterations 4
time step continuity errors : sum local = 5.03291e-10, global = -6.81234e-11, cumulative = -7.126e-09
ExecutionTime = 0.635468 s  ClockTime = 0 s

Courant Number mean: 0.0163779 max: 0.101915
Time = 0.165s

PIMPLE: Iteration 1
GAMG:  Solving for p, Initial residual = 0.00559874, Final residual = 3.83923e-07, No Iterations 9
time step continuity errors : sum local = 3.34446e-10, global = 2.85252e-10
PIMPLE: Iteration 2
GAMG:  Solving for p, Initial residual = 0.00177253, Final residual = 5.50333e-07, No Iterations 6
time step continuity errors : sum local = 4.78136e-10, global = -2.19578e-10
PIMPLE: Iteration 3
GAMG:  Solving for p, Initial residual = 0.000881741, Final residual = 8.23319e-07, No Iterations 5
time step continuity errors : sum local = 7.16124e-10, global = 5.18833e-10
PIMPLE: Iteration 4
GAMG:  Solving for p, Initial residual = 0.000433297, Final residual = 9.67491e-07, No Iterations 4
time step continuity errors : sum local = 8.41187e-10, global = -2.36877e-10
PIMPLE: Iteration 5
GAMG:  Solving for p, Initial residual = 0.000250221, Final residual = 5.06708e-07, No Iterations 4
time step continuity errors : sum local = 4.40561e-10, global = 1.51587e-10, cumulative = -6.97441e-09
ExecutionTime = 0.643894 s  ClockTime = 0 s

Courant Number mean: 0.0163804 max: 0.101909
Time = 0.1675s

PIMPLE: Iteration 1
GAMG:  Solving for p, Initial residual = 0.0057396, Final residual = 5.76116e-07, No Iterations 8
time step continuity errors : sum local = 5.00903e-10, global = -4.41197e-10
PIMPLE: Iteration 2
GAMG:  Solving for p, Initial residual = 0.00165205, Final residual = 4.52439e-07, No Iterations 6
time step continuity errors : sum local = 3.9391e-10, global = -9.17889e-11
PIMPLE: Iteration 3
GAMG:  Solving for p, Initial residual = 0.000875272, Final residual = 5.74011e-07, No Iterations 5
time step continuity errors : sum local = 4.99753e-10, global = 5.53771e-11
PIMPLE: Iteration 4
GAMG:  Solving for p, Initial residual = 0.000383294, Final residual = 4.85147e-07, No Iterations 5
time step continuity errors : sum local = 4.22446e-10, global = -1.14679e-10
PIMPLE: Iteration 5
GAMG:  Solving for p, Initial residual = 0.000226533, Final residual = 5.75293e-07, No Iterations 4
time step continuity errors : sum local = 5.00833e-10, global = -5.79266e-11, cumulative = -7.03234e-09
ExecutionTime = 0.652354 s  ClockTime = 0 s

Courant Number mean: 0.016381 max: 0.101917
Time = 0.17s

PIMPLE: Iteration 1
GAMG:  Solving for p, Initial residual = 0.00562486, Final residual = 9.88407e-07, No Iterations 8
time step continuity errors : sum local = 8.60937e-10, global = -3.45454e-10
PIMPLE: Iteration 2
GAMG:  Solving for p, Initial residual = 0.00177263, Final residual = 5.59695e-07, No Iterations 6
[...]
time step continuity errors : sum local = 7.76382e-12, global = -3.54675e-12, cumulative = -1.12952e-09
ExecutionTime = 10.1032 s  ClockTime = 10 s

Courant Number mean: 0.0178607 max: 0.11885
Time = 4.96s

PIMPLE: Iteration 1
GAMG:  Solving for p, Initial residual = 0.00100558, Final residual = 6.54392e-07, No Iterations 5
time step continuity errors : sum local = 1.43336e-11, global = 4.86929e-12
PIMPLE: Iteration 2
GAMG:  Solving for p, Initial residual = 0.000991905, Final residual = 6.58076e-07, No Iterations 6
time step continuity errors : sum local = 1.44156e-11, global = -9.25242e-12
PIMPLE: Iteration 3
GAMG:  Solving for p, Initial residual = 0.000217808, Final residual = 7.14116e-07, No Iterations 4
time step continuity errors : sum local = 1.5645e-11, global = -1.09646e-11
PIMPLE: Iteration 4
GAMG:  Solving for p, Initial residual = 4.37803e-05, Final residual = 5.02886e-07, No Iterations 3
time step continuity errors : sum local = 1.10188e-11, global = -1.65467e-12
PIMPLE: Iteration 5
GAMG:  Solving for p, Initial residual = 1.31474e-05, Final residual = 3.22752e-07, No Iterations 2
time step continuity errors : sum local = 7.07199e-12, global = -3.07021e-12, cumulative = -1.13259e-09
ExecutionTime = 10.1079 s  ClockTime = 10 s

Courant Number mean: 0.0178628 max: 0.11886
Time = 4.9625s

PIMPLE: Iteration 1
GAMG:  Solving for p, Initial residual = 0.00123373, Final residual = 8.84712e-07, No Iterations 5
time step continuity errors : sum local = 1.93905e-11, global = 3.10325e-12
PIMPLE: Iteration 2
GAMG:  Solving for p, Initial residual = 0.00100026, Final residual = 6.88376e-07, No Iterations 6
time step continuity errors : sum local = 1.50919e-11, global = -9.96007e-12
PIMPLE: Iteration 3
GAMG:  Solving for p, Initial residual = 0.000218447, Final residual = 7.03555e-07, No Iterations 4
time step continuity errors : sum local = 1.54268e-11, global = -1.07619e-11
PIMPLE: Iteration 4
GAMG:  Solving for p, Initial residual = 4.42917e-05, Final residual = 5.11719e-07, No Iterations 3
time step continuity errors : sum local = 1.1222e-11, global = -1.69527e-12
PIMPLE: Iteration 5
GAMG:  Solving for p, Initial residual = 1.32546e-05, Final residual = 3.22176e-07, No Iterations 2
time step continuity errors : sum local = 7.06543e-12, global = -3.04373e-12, cumulative = -1.13563e-09
ExecutionTime = 10.1127 s  ClockTime = 10 s

Courant Number mean: 0.0178648 max: 0.11887
Time = 4.965s

PIMPLE: Iteration 1
GAMG:  Solving for p, Initial residual = 0.00203812, Final residual = 7.97386e-07, No Iterations 5
time step continuity errors : sum local = 1.75001e-11, global = -7.3052e-12
PIMPLE: Iteration 2
GAMG:  Solving for p, Initial residual = 0.00104308, Final residual = 8.44553e-07, No Iterations 6
time step continuity errors : sum local = 1.85549e-11, global = -1.35513e-11
PIMPLE: Iteration 3
GAMG:  Solving for p, Initial residual = 0.00022231, Final residual = 7.08513e-07, No Iterations 4
time step continuity errors : sum local = 1.55697e-11, global = -1.02389e-11
PIMPLE: Iteration 4
GAMG:  Solving for p, Initial residual = 4.5864e-05, Final residual = 5.62675e-07, No Iterations 3
time step continuity errors : sum local = 1.23668e-11, global = -1.71192e-12
PIMPLE: Iteration 5
GAMG:  Solving for p, Initial residual = 1.35176e-05, Final residual = 3.2182e-07, No Iterations 2
time step continuity errors : sum local = 7.07325e-12, global = -2.96497e-12, cumulative = -1.1386e-09
ExecutionTime = 10.1175 s  ClockTime = 10 s

Courant Number mean: 0.017867 max: 0.118879
Time = 4.9675s

PIMPLE: Iteration 1
GAMG:  Solving for p, Initial residual = 0.00315929, Final residual = 6.67913e-07, No Iterations 7
time step continuity errors : sum local = 1.46977e-11, global = -1.05657e-14
PIMPLE: Iteration 2
GAMG:  Solving for p, Initial residual = 0.00109871, Final residual = 8.01927e-07, No Iterations 6
time step continuity errors : sum local = 1.76552e-11, global = -1.06988e-11
PIMPLE: Iteration 3
GAMG:  Solving for p, Initial residual = 0.000216378, Final residual = 5.32415e-07, No Iterations 4
time step continuity errors : sum local = 1.17246e-11, global = -9.19585e-12
PIMPLE: Iteration 4
GAMG:  Solving for p, Initial residual = 4.59463e-05, Final residual = 6.0835e-07, No Iterations 3
time step continuity errors : sum local = 1.33986e-11, global = -2.29815e-12
PIMPLE: Iteration 5
GAMG:  Solving for p, Initial residual = 1.34697e-05, Final residual = 2.76398e-07, No Iterations 2
time step continuity errors : sum local = 6.08768e-12, global = -1.91378e-12, cumulative = -1.14051e-09
ExecutionTime = 10.1225 s  ClockTime = 10 s

Courant Number mean: 0.0178694 max: 0.118889
Time = 4.97s

PIMPLE: Iteration 1
GAMG:  Solving for p, Initial residual = 0.00397984, Final residual = 5.67547e-07, No Iterations 6
time step continuity errors : sum local = 1.24741e-11, global = 8.42157e-12
PIMPLE: Iteration 2
GAMG:  Solving for p, Initial residual = 0.00108679, Final residual = 4.82075e-07, No Iterations 6
time step continuity errors : sum local = 1.0564e-11, global = -2.57769e-12
PIMPLE: Iteration 3
GAMG:  Solving for p, Initial residual = 0.000198128, Final residual = 7.29965e-07, No Iterations 4
time step continuity errors : sum local = 1.59927e-11, global = -5.10715e-12
PIMPLE: Iteration 4
GAMG:  Solving for p, Initial residual = 4.40031e-05, Final residual = 3.5637e-07, No Iterations 3
time step continuity errors : sum local = 7.80824e-12, global = 9.74318e-13
PIMPLE: Iteration 5
GAMG:  Solving for p, Initial residual = 1.28354e-05, Final residual = 4.11948e-07, No Iterations 2
time step continuity errors : sum local = 9.02597e-12, global = -1.25319e-12, cumulative = -1.14176e-09
ExecutionTime = 10.1273 s  ClockTime = 10 s

Courant Number mean: 0.0178718 max: 0.118898
Time = 4.9725s

PIMPLE: Iteration 1
GAMG:  Solving for p, Initial residual = 0.00118006, Final residual = 4.67489e-07, No Iterations 5
time step continuity errors : sum local = 1.02456e-11, global = 4.23765e-13
PIMPLE: Iteration 2
GAMG:  Solving for p, Initial residual = 0.000980848, Final residual = 6.25535e-07, No Iterations 6
time step continuity errors : sum local = 1.37143e-11, global = -8.76171e-12
PIMPLE: Iteration 3
GAMG:  Solving for p, Initial residual = 0.000213815, Final residual = 7.10502e-07, No Iterations 4
time step continuity errors : sum local = 1.55781e-11, global = -1.10322e-11
PIMPLE: Iteration 4
GAMG:  Solving for p, Initial residual = 4.36731e-05, Final residual = 4.85627e-07, No Iterations 3
time step continuity errors : sum local = 1.06491e-11, global = -1.6539e-12
PIMPLE: Iteration 5
GAMG:  Solving for p, Initial residual = 1.30125e-05, Final residual = 3.25138e-07, No Iterations 2
time step continuity errors : sum local = 7.1299e-12, global = -3.0665e-12, cumulative = -1.14483e-09
ExecutionTime = 10.1321 s  ClockTime = 10 s

Courant Number mean: 0.0178742 max: 0.118907
Time = 4.975s

PIMPLE: Iteration 1
GAMG:  Solving for p, Initial residual = 0.000975752, Final residual = 6.62098e-07, No Iterations 5
time step continuity errors : sum local = 1.45227e-11, global = 2.98838e-12
PIMPLE: Iteration 2
GAMG:  Solving for p, Initial residual = 0.000986344, Final residual = 6.50729e-07, No Iterations 6
time step continuity errors : sum local = 1.42781e-11, global = -9.26367e-12
PIMPLE: Iteration 3
GAMG:  Solving for p, Initial residual = 0.00021484, Final residual = 7.04096e-07, No Iterations 4
time step continuity errors : sum local = 1.54505e-11, global = -1.07301e-11
PIMPLE: Iteration 4
GAMG:  Solving for p, Initial residual = 4.37316e-05, Final residual = 4.94883e-07, No Iterations 3
time step continuity errors : sum local = 1.0861e-11, global = -1.70551e-12
PIMPLE: Iteration 5
GAMG:  Solving for p, Initial residual = 1.30044e-05, Final residual = 3.19361e-07, No Iterations 2
time step continuity errors : sum local = 7.00902e-12, global = -2.98121e-12, cumulative = -1.14781e-09
ExecutionTime = 10.1367 s  ClockTime = 10 s

volFieldValue UminMag write:
    minMag(all) of U = 0.00147555 at location (0.800508 0.63107 2.33507e-17) in cell 180

volFieldValue UmaxMag write:
    maxMag(all) of U = 2.75726 at location (2.79447 1.36746 -6.03792e-17) in cell 324

volFieldValue pMin write:
    min(all) of p = -1.91755 at location (1.91598 -0.269152 0) in cell 1271

volFieldValue pMax write:
    max(all) of p = 2.40733 at location (-1.01228 -0.119811 4.67146e-17) in cell 1489

Courant Number mean: 0.0178766 max: 0.118916
Time = 4.9775s

PIMPLE: Iteration 1
GAMG:  Solving for p, Initial residual = 0.00103033, Final residual = 5.75621e-07, No Iterations 5
time step continuity errors : sum local = 1.26349e-11, global = 3.38788e-12
PIMPLE: Iteration 2
GAMG:  Solving for p, Initial residual = 0.000984147, Final residual = 6.50131e-07, No Iterations 6
time step continuity errors : sum local = 1.42724e-11, global = -9.16428e-12
PIMPLE: Iteration 3
GAMG:  Solving for p, Initial residual = 0.000217697, Final residual = 7.11123e-07, No Iterations 4
time step continuity errors : sum local = 1.56128e-11, global = -1.11893e-11
PIMPLE: Iteration 4
GAMG:  Solving for p, Initial residual = 4.3974e-05, Final residual = 4.95296e-07, No Iterations 3
time step continuity errors : sum local = 1.08758e-11, global = -1.75093e-12
PIMPLE: Iteration 5
GAMG:  Solving for p, Initial residual = 1.3132e-05, Final residual = 3.17287e-07, No Iterations 2
time step continuity errors : sum local = 6.96718e-12, global = -2.93176e-12, cumulative = -1.15074e-09
ExecutionTime = 10.1412 s  ClockTime = 10 s

Courant Number mean: 0.0178789 max: 0.118926
Time = 4.98s

PIMPLE: Iteration 1
GAMG:  Solving for p, Initial residual = 0.000979442, Final residual = 5.91115e-07, No Iterations 5
time step continuity errors : sum local = 1.29849e-11, global = 5.50684e-12
PIMPLE: Iteration 2
GAMG:  Solving for p, Initial residual = 0.000981662, Final residual = 6.53152e-07, No Iterations 6
time step continuity errors : sum local = 1.43524e-11, global = -9.13749e-12
PIMPLE: Iteration 3
GAMG:  Solving for p, Initial residual = 0.000213742, Final residual = 6.75869e-07, No Iterations 4
time step continuity errors : sum local = 1.48529e-11, global = -1.0821e-11
PIMPLE: Iteration 4
GAMG:  Solving for p, Initial residual = 4.34465e-05, Final residual = 4.93489e-07, No Iterations 3
time step continuity errors : sum local = 1.08463e-11, global = -1.80417e-12
PIMPLE: Iteration 5
GAMG:  Solving for p, Initial residual = 1.29288e-05, Final residual = 3.10088e-07, No Iterations 2
time step continuity errors : sum local = 6.81547e-12, global = -2.78083e-12, cumulative = -1.15352e-09
ExecutionTime = 10.1456 s  ClockTime = 10 s

Courant Number mean: 0.0178812 max: 0.118935
Time = 4.9825s

PIMPLE: Iteration 1
GAMG:  Solving for p, Initial residual = 0.00134292, Final residual = 4.97212e-07, No Iterations 5
time step continuity errors : sum local = 1.09255e-11, global = 2.02401e-12
PIMPLE: Iteration 2
GAMG:  Solving for p, Initial residual = 0.00100245, Final residual = 6.7263e-07, No Iterations 6
time step continuity errors : sum local = 1.47755e-11, global = -9.14194e-12
PIMPLE: Iteration 3
GAMG:  Solving for p, Initial residual = 0.000214108, Final residual = 6.71912e-07, No Iterations 4
time step continuity errors : sum local = 1.47612e-11, global = -1.06052e-11
PIMPLE: Iteration 4
GAMG:  Solving for p, Initial residual = 4.41319e-05, Final residual = 5.21052e-07, No Iterations 3
time step continuity errors : sum local = 1.14485e-11, global = -2.11412e-12
PIMPLE: Iteration 5
GAMG:  Solving for p, Initial residual = 1.29613e-05, Final residual = 3.19451e-07, No Iterations 2
time step continuity errors : sum local = 7.01906e-12, global = -2.58805e-12, cumulative = -1.15611e-09
ExecutionTime = 10.15 s  ClockTime = 10 s

Courant Number mean: 0.0178834 max: 0.118943
Time = 4.985s

PIMPLE: Iteration 1
GAMG:  Solving for p, Initial residual = 0.000985471, Final residual = 6.44963e-07, No Iterations 5
time step continuity errors : sum local = 1.41724e-11, global = 8.30188e-12
PIMPLE: Iteration 2
GAMG:  Solving for p, Initial residual = 0.000995625, Final residual = 6.4661e-07, No Iterations 6
time step continuity errors : sum local = 1.42085e-11, global = -8.99629e-12
PIMPLE: Iteration 3
GAMG:  Solving for p, Initial residual = 0.000220094, Final residual = 6.54925e-07, No Iterations 4
time step continuity errors : sum local = 1.43925e-11, global = -1.09373e-11
PIMPLE: Iteration 4
GAMG:  Solving for p, Initial residual = 4.44547e-05, Final residual = 4.82049e-07, No Iterations 3
time step continuity errors : sum local = 1.05948e-11, global = -1.73101e-12
PIMPLE: Iteration 5
GAMG:  Solving for p, Initial residual = 1.31774e-05, Final residual = 3.02515e-07, No Iterations 2
time step continuity errors : sum local = 6.64893e-12, global = -2.70838e-12, cumulative = -1.15882e-09
ExecutionTime = 10.1543 s  ClockTime = 10 s

Courant Number mean: 0.0178857 max: 0.118952
Time = 4.9875s

PIMPLE: Iteration 1
GAMG:  Solving for p, Initial residual = 0.001802, Final residual = 9.92202e-07, No Iterations 7
time step continuity errors : sum local = 2.18083e-11, global = 3.65189e-12
PIMPLE: Iteration 2
GAMG:  Solving for p, Initial residual = 0.00103316, Final residual = 5.99577e-07, No Iterations 6
time step continuity errors : sum local = 1.31975e-11, global = -1.02865e-11
PIMPLE: Iteration 3
GAMG:  Solving for p, Initial residual = 0.000242086, Final residual = 8.43407e-07, No Iterations 5
time step continuity errors : sum local = 1.85685e-11, global = 3.65079e-12
PIMPLE: Iteration 4
GAMG:  Solving for p, Initial residual = 5.17475e-05, Final residual = 4.81089e-07, No Iterations 3
time step continuity errors : sum local = 1.05943e-11, global = 2.56875e-14
PIMPLE: Iteration 5
GAMG:  Solving for p, Initial residual = 1.63105e-05, Final residual = 4.93477e-07, No Iterations 2
time step continuity errors : sum local = 1.08672e-11, global = -4.50835e-12, cumulative = -1.16333e-09
ExecutionTime = 10.1589 s  ClockTime = 10 s

Courant Number mean: 0.017888 max: 0.118961
Time = 4.99s

PIMPLE: Iteration 1
GAMG:  Solving for p, Initial residual = 0.00144518, Final residual = 7.21426e-07, No Iterations 5
time step continuity errors : sum local = 1.58842e-11, global = 4.80147e-12
PIMPLE: Iteration 2
GAMG:  Solving for p, Initial residual = 0.00101434, Final residual = 5.94021e-07, No Iterations 6
time step continuity errors : sum local = 1.30777e-11, global = -8.88202e-12
PIMPLE: Iteration 3
GAMG:  Solving for p, Initial residual = 0.000212869, Final residual = 7.2671e-07, No Iterations 4
time step continuity errors : sum local = 1.6001e-11, global = -1.03952e-11
PIMPLE: Iteration 4
GAMG:  Solving for p, Initial residual = 4.33122e-05, Final residual = 4.81361e-07, No Iterations 3
time step continuity errors : sum local = 1.06003e-11, global = -1.58225e-12
PIMPLE: Iteration 5
GAMG:  Solving for p, Initial residual = 1.28158e-05, Final residual = 3.31211e-07, No Iterations 2
time step continuity errors : sum local = 7.29388e-12, global = -3.19179e-12, cumulative = -1.16652e-09
ExecutionTime = 10.1633 s  ClockTime = 10 s

Courant Number mean: 0.0178902 max: 0.11897
Time = 4.9925s

PIMPLE: Iteration 1
GAMG:  Solving for p, Initial residual = 0.00119231, Final residual = 7.60086e-07, No Iterations 5
time step continuity errors : sum local = 1.67379e-11, global = 5.24858e-12
PIMPLE: Iteration 2
GAMG:  Solving for p, Initial residual = 0.00102614, Final residual = 5.65676e-07, No Iterations 6
time step continuity errors : sum local = 1.24566e-11, global = -8.4361e-12
PIMPLE: Iteration 3
GAMG:  Solving for p, Initial residual = 0.00021449, Final residual = 7.39678e-07, No Iterations 4
time step continuity errors : sum local = 1.62899e-11, global = -1.05635e-11
PIMPLE: Iteration 4
GAMG:  Solving for p, Initial residual = 4.29103e-05, Final residual = 4.81292e-07, No Iterations 3
time step continuity errors : sum local = 1.0601e-11, global = -1.6018e-12
PIMPLE: Iteration 5
GAMG:  Solving for p, Initial residual = 1.26404e-05, Final residual = 3.33776e-07, No Iterations 2
time step continuity errors : sum local = 7.35191e-12, global = -3.19244e-12, cumulative = -1.16971e-09
ExecutionTime = 10.1677 s  ClockTime = 10 s

Courant Number mean: 0.0178924 max: 0.118978
Time = 4.995s

PIMPLE: Iteration 1
GAMG:  Solving for p, Initial residual = 0.00110254, Final residual = 7.00384e-07, No Iterations 5
time step continuity errors : sum local = 1.543e-11, global = 9.92459e-12
PIMPLE: Iteration 2
GAMG:  Solving for p, Initial residual = 0.0009766, Final residual = 6.26946e-07, No Iterations 6
time step continuity errors : sum local = 1.38146e-11, global = -9.0323e-12
PIMPLE: Iteration 3
GAMG:  Solving for p, Initial residual = 0.000210845, Final residual = 6.70756e-07, No Iterations 4
time step continuity errors : sum local = 1.47818e-11, global = -1.04507e-11
PIMPLE: Iteration 4
GAMG:  Solving for p, Initial residual = 4.28476e-05, Final residual = 4.84736e-07, No Iterations 3
time step continuity errors : sum local = 1.06838e-11, global = -1.79103e-12
PIMPLE: Iteration 5
GAMG:  Solving for p, Initial residual = 1.26882e-05, Final residual = 3.07241e-07, No Iterations 2
time step continuity errors : sum local = 6.77179e-12, global = -2.76758e-12, cumulative = -1.17248e-09
ExecutionTime = 10.1722 s  ClockTime = 10 s

Courant Number mean: 0.0178946 max: 0.118987
Time = 4.9975s

PIMPLE: Iteration 1
GAMG:  Solving for p, Initial residual = 0.00112861, Final residual = 8.65099e-07, No Iterations 5
time step continuity errors : sum local = 1.9073e-11, global = 1.26888e-11
PIMPLE: Iteration 2
GAMG:  Solving for p, Initial residual = 0.000974389, Final residual = 6.35472e-07, No Iterations 6
time step continuity errors : sum local = 1.40133e-11, global = -8.9672e-12
PIMPLE: Iteration 3
GAMG:  Solving for p, Initial residual = 0.000208634, Final residual = 6.46634e-07, No Iterations 4
time step continuity errors : sum local = 1.42612e-11, global = -1.02969e-11
PIMPLE: Iteration 4
GAMG:  Solving for p, Initial residual = 4.26199e-05, Final residual = 4.85987e-07, No Iterations 3
time step continuity errors : sum local = 1.07196e-11, global = -1.85296e-12
PIMPLE: Iteration 5
GAMG:  Solving for p, Initial residual = 1.2552e-05, Final residual = 3.0034e-07, No Iterations 2
time step continuity errors : sum local = 6.62476e-12, global = -2.61403e-12, cumulative = -1.17509e-09
ExecutionTime = 10.1766 s  ClockTime = 11 s

Courant Number mean: 0.0178967 max: 0.118995
Time = 5s

PIMPLE: Iteration 1
GAMG:  Solving for p, Initial residual = 0.00139427, Final residual = 4.3483e-07, No Iterations 7
time step continuity errors : sum local = 9.59723e-12, global = 4.6598e-12
PIMPLE: Iteration 2
GAMG:  Solving for p, Initial residual = 0.000964697, Final residual = 7.03289e-07, No Iterations 6
time step continuity errors : sum local = 1.55236e-11, global = -9.46763e-12
PIMPLE: Iteration 3
GAMG:  Solving for p, Initial residual = 0.000200077, Final residual = 5.95258e-07, No Iterations 4
time step continuity errors : sum local = 1.31409e-11, global = -1.0169e-11
PIMPLE: Iteration 4
GAMG:  Solving for p, Initial residual = 4.17114e-05, Final residual = 4.98279e-07, No Iterations 3
time step continuity errors : sum local = 1.10012e-11, global = -2.14852e-12
PIMPLE: Iteration 5
GAMG:  Solving for p, Initial residual = 1.20883e-05, Final residual = 2.78907e-07, No Iterations 2
time step continuity errors : sum local = 6.15788e-12, global = -2.06609e-12, cumulative = -1.17716e-09
ExecutionTime = 10.183 s  ClockTime = 11 s

volFieldValue UminMag write:
    minMag(all) of U = 0.0019051 at location (0.800508 0.63107 2.33507e-17) in cell 180

volFieldValue UmaxMag write:
    maxMag(all) of U = 2.75406 at location (2.79447 1.36746 -6.03792e-17) in cell 324

volFieldValue pMin write:
    min(all) of p = -1.90295 at location (1.91598 -0.269152 0) in cell 1271

volFieldValue pMax write:
    max(all) of p = 2.41146 at location (-1.01228 -0.119811 4.67146e-17) in cell 1489

End

