[17:24:35] Using config: /home/kalel1938/Documents/codex_projects/adaptive_model_reduction/rom/configs/low.yaml
[17:24:35] Activated venv: /home/kalel1938/venvs/myenv/bin/activate
[17:24:35] Syncing cases/base -> cases/low ...
[17:24:35] Applying low-fidelity settings (mesh/time/writeFormat)...
[case_setup_low] Updated OpenFOAM dictionaries in /home/kalel1938/Documents/codex_projects/adaptive_model_reduction/cases/low
[17:24:35] Cleaning case: /home/kalel1938/Documents/codex_projects/adaptive_model_reduction/cases/low
[17:24:35] Running blockMesh...
/*---------------------------------------------------------------------------*\
  =========                 |
  \\      /  F ield         | OpenFOAM: The Open Source CFD Toolbox
   \\    /   O peration     | Website:  https://openfoam.org
    \\  /    A nd           | Version:  13
     \\/     M anipulation  |
\*---------------------------------------------------------------------------*/
Build  : 13-cde978a97c93
Exec   : blockMesh
Date   : Dec 18 2025
Time   : 17:24:36
Host   : "kalel1938-asus"
PID    : 622466
I/O    : uncollated
Case   : /home/kalel1938/Documents/codex_projects/adaptive_model_reduction/cases/low
nProcs : 1
sigFpe : Enabling floating point exception trapping (FOAM_SIGFPE).
fileModificationChecking : Monitoring run-time modified files using timeStampMaster (fileModificationSkew 10)
allowSystemOperations : Allowing user-supplied system call operations

// * * * * * * * * * * * * * * * * * * * * * * * * * * * * * * * * * * * * * //
Create time

Reading "blockMeshDict"

Creating block mesh from
    "system/blockMeshDict"
Creating block edges
No non-planar block faces defined
Creating topology blocks
Creating topology patches

Creating block mesh topology

Basic statistics
    Number of internal faces : 28
    Number of boundary faces : 64
    Number of defined boundary faces : 64
    Number of undefined boundary faces : 0

Checking topology
Creating block offsets
Creating merge list .

Creating polyMesh from blockMesh
Creating patches
Creating cells
Creating points with scale 1
    Block 0 cell size :
        i : 0.0799998
        j : 0.156918 .. 0.156918 0.169472 .. 0.169472 0.156918 .. 0.156918 0.169472 .. 0.169472 
        k : 2
    Block 1 cell size :
        i : 0.08
        j : 0.156918 .. 0.156918 0.169472 .. 0.169472 0.156918 .. 0.156918 0.169472 .. 0.169472 
        k : 2
    Block 2 cell size :
        i : 0.72 .. 0.72 0.72346 .. 0.72346 0.72 .. 0.72 0.72346 .. 0.72346 
        j : 0.219685 .. 0.219685 0.215247 .. 0.207459 0.219685 .. 0.219685 0.215247 .. 0.207459 
        k : 2
    Block 3 cell size :
        i : 0.80201 .. 0.80201
        j : 0.30201 .. 0.30201
        k : 2
    Block 4 cell size :
        i : 0.219685 .. 0.219685 0.215247 .. 0.207459 0.219685 .. 0.219685 0.215247 .. 0.207459 
        j : 0.22 .. 0.22 0.223487 .. 0.223487 0.22 .. 0.22 0.223487 .. 0.223487 
        k : 2
    Block 5 cell size :
        i : 0.0799998 .. 0.0799998
        j : 0.219685 .. 0.219685 0.207132 .. 0.207132 0.219685 .. 0.219685 0.207132 .. 0.207132 
        k : 2
    Block 6 cell size :
        i : 0.08 .. 0.08
        j : 0.219685 .. 0.219685 0.207132 .. 0.207132 0.219685 .. 0.219685 0.207132 .. 0.207132 
        k : 2
    Block 7 cell size :
        i : 0.72 0.72346 .. 0.72346 0.72 0.72346 .. 0.72346 
        j : 0.19799 0.202223 .. 0.193913 0.19799 0.202223 .. 0.193913 
        k : 2
    Block 8 cell size :
        i : 0.80201 .. 0.80201
        j : 0.30201 .. 0.30201
        k : 2
    Block 9 cell size :
        i : 0.219685 .. 0.219685 0.207459 .. 0.215247 0.219685 .. 0.219685 0.207459 .. 0.215247 
        j : 0.30201 .. 0.30201 0.273545 .. 0.273545 0.30201 .. 0.30201 0.273545 .. 0.273545 
        k : 2
    Block 10 cell size :
        i : 0.08
        j : 0.156918 .. 0.156918 0.169472 .. 0.169472 0.156918 .. 0.156918 0.169472 .. 0.169472 
        k : 2
    Block 11 cell size :
        i : 0.0799998
        j : 0.156918 0.169472 .. 0.169472 0.156918 0.169472 .. 0.169472 
        k : 2
    Block 12 cell size :
        i : 0.80201 .. 0.80201 0.7735 .. 0.7735 0.80201 .. 0.80201 0.7735 .. 0.7735 
        j : 0.219685 .. 0.219685 0.207459 .. 0.215247 0.219685 .. 0.219685 0.207459 .. 0.215247 
        k : 2
    Block 13 cell size :
        i : 0.80201 .. 0.80201
        j : 0.255025 .. 0.255026
        k : 2
    Block 14 cell size :
        i : 0.19799 0.208677 .. 0.195966 0.19799 0.208677 .. 0.195966 
        j : 0.05 0.0595531 .. 0.0595531 0.05 0.0595531 .. 0.0595531 
        k : 2
    Block 15 cell size :
        i : 0.0799998 .. 0.0799998
        j : 0.219685 .. 0.219685 0.207132 .. 0.207132 0.219685 .. 0.219685 0.207132 .. 0.207132 
        k : 2
    Block 16 cell size :
        i : 0.08 .. 0.08
        j : 0.219685 .. 0.219685 0.207132 .. 0.207132 0.219685 .. 0.219685 0.207132 .. 0.207132 
        k : 2
    Block 17 cell size :
        i : 0.80201 .. 0.80201 0.7735 .. 0.7735 0.80201 .. 0.80201 0.7735 .. 0.7735 
        j : 0.19799 .. 0.19799 0.193913 .. 0.202223 0.19799 .. 0.19799 0.193913 .. 0.202223 
        k : 2
    Block 18 cell size :
        i : 0.80201 .. 0.80201
        j : 0.255025 .. 0.255026
        k : 2
    Block 19 cell size :
        i : 0.19799 .. 0.19799 0.195966 .. 0.208677 0.19799 .. 0.19799 0.195966 .. 0.208677 
        j : 0.255025 .. 0.255026 0.184339 .. 0.184339 0.255025 .. 0.255026 0.184339 .. 0.184339 
        k : 2

No patch pairs to merge

Writing polyMesh
----------------
Mesh Information
----------------
  boundingBox: (-5 -1.5 -1) (5 2.5 1)
  nPoints: 994
  nCells: 440
  nFaces: 1817
  nInternalFaces: 823
----------------
Patches
----------------
  patch 0 (start: 823 size: 17) name: left
  patch 1 (start: 840 size: 17) name: right
  patch 2 (start: 857 size: 20) name: down
  patch 3 (start: 877 size: 20) name: up
  patch 4 (start: 897 size: 40) name: cylinder
  patch 5 (start: 937 size: 880) name: defaultFaces

End

[17:24:36] Post-mesh case setup (functionObjects: forces if cylinder patch detected)...
[case_setup_low] Added forces functionObject for patch: cylinder
[case_setup_low] Updated OpenFOAM dictionaries in /home/kalel1938/Documents/codex_projects/adaptive_model_reduction/cases/low
