[17:40:13] Using config: /home/kalel1938/Documents/codex_projects/adaptive_model_reduction/rom/configs/low.yaml
[17:40:13] Activated venv: /home/kalel1938/venvs/myenv/bin/activate
[17:40:13] Syncing cases/base -> cases/low ...
[17:40:13] Applying low-fidelity settings (mesh/time/writeFormat)...
[case_setup_low] Updated OpenFOAM dictionaries in /home/kalel1938/Documents/codex_projects/adaptive_model_reduction/cases/low
[17:40:13] Cleaning case: /home/kalel1938/Documents/codex_projects/adaptive_model_reduction/cases/low
[17:40:13] Running blockMesh...
/*---------------------------------------------------------------------------*\
  =========                 |
  \\      /  F ield         | OpenFOAM: The Open Source CFD Toolbox
   \\    /   O peration     | Website:  https://openfoam.org
    \\  /    A nd           | Version:  13
     \\/     M anipulation  |
\*---------------------------------------------------------------------------*/
Build  : 13-cde978a97c93
Exec   : blockMesh
Date   : Dec 18 2025
Time   : 17:40:13
Host   : "kalel1938-asus"
PID    : 629249
I/O    : uncollated
Case   : /home/kalel1938/Documents/codex_projects/adaptive_model_reduction/cases/low
nProcs : 1
sigFpe : Enabling floating point exception trapping (FOAM_SIGFPE).
fileModificationChecking : Monitoring run-time modified files using timeStampMaster (fileModificationSkew 10)
allowSystemOperations : Allowing user-supplied system call operations

// * * * * * * * * * * * * * * * * * * * * * * * * * * * * * * * * * * * * * //
Create time

Reading "blockMeshDict"

Creating block mesh from
    "system/blockMeshDict"
Creating block edges
No non-planar block faces defined
Creating topology blocks
Creating topology patches

Creating block mesh topology

Basic statistics
    Number of internal faces : 28
    Number of boundary faces : 64
    Number of defined boundary faces : 64
    Number of undefined boundary faces : 0

Checking topology
Creating block offsets
Creating merge list .

Creating polyMesh from blockMesh
Creating patches
Creating cells
Creating points with scale 1
    Block 0 cell size :
        i : 0.0799998
        j : 0.156918 .. 0.156918 0.169472 .. 0.169472 0.156918 .. 0.156918 0.169472 .. 0.169472 
        k : 2
    Block 1 cell size :
        i : 0.08
        j : 0.156918 .. 0.156918 0.169472 .. 0.169472 0.156918 .. 0.156918 0.169472 .. 0.169472 
        k : 2
    Block 2 cell size :
        i : 0.72 .. 0.72 0.72346 .. 0.72346 0.72 .. 0.72 0.72346 .. 0.72346 
        j : 0.219685 .. 0.219685 0.215247 .. 0.207459 0.219685 .. 0.219685 0.215247 .. 0.207459 
        k : 2
    Block 3 cell size :
        i : 0.80201 .. 0.80201
        j : 0.30201 .. 0.30201
        k : 2
    Block 4 cell size :
        i : 0.219685 .. 0.219685 0.215247 .. 0.207459 0.219685 .. 0.219685 0.215247 .. 0.207459 
        j : 0.22 .. 0.22 0.223487 .. 0.223487 0.22 .. 0.22 0.223487 .. 0.223487 
        k : 2
    Block 5 cell size :
        i : 0.0799998 .. 0.0799998
        j : 0.219685 .. 0.219685 0.207132 .. 0.207132 0.219685 .. 0.219685 0.207132 .. 0.207132 
        k : 2
    Block 6 cell size :
        i : 0.08 .. 0.08
        j : 0.219685 .. 0.219685 0.207132 .. 0.207132 0.219685 .. 0.219685 0.207132 .. 0.207132 
        k : 2
    Block 7 cell size :
        i : 0.72 0.72346 .. 0.72346 0.72 0.72346 .. 0.72346 
        j : 0.19799 0.202223 .. 0.193913 0.19799 0.202223 .. 0.193913 
        k : 2
    Block 8 cell size :
        i : 0.80201 .. 0.80201
        j : 0.30201 .. 0.30201
        k : 2
    Block 9 cell size :
        i : 0.219685 .. 0.219685 0.207459 .. 0.215247 0.219685 .. 0.219685 0.207459 .. 0.215247 
        j : 0.30201 .. 0.30201 0.273545 .. 0.273545 0.30201 .. 0.30201 0.273545 .. 0.273545 
        k : 2
    Block 10 cell size :
        i : 0.08
        j : 0.156918 .. 0.156918 0.169472 .. 0.169472 0.156918 .. 0.156918 0.169472 .. 0.169472 
        k : 2
    Block 11 cell size :
        i : 0.0799998
        j : 0.156918 0.169472 .. 0.169472 0.156918 0.169472 .. 0.169472 
        k : 2
    Block 12 cell size :
        i : 0.80201 .. 0.80201 0.7735 .. 0.7735 0.80201 .. 0.80201 0.7735 .. 0.7735 
        j : 0.219685 .. 0.219685 0.207459 .. 0.215247 0.219685 .. 0.219685 0.207459 .. 0.215247 
        k : 2
    Block 13 cell size :
        i : 0.80201 .. 0.80201
        j : 0.255025 .. 0.255026
        k : 2
    Block 14 cell size :
        i : 0.19799 0.208677 .. 0.195966 0.19799 0.208677 .. 0.195966 
        j : 0.05 0.0595531 .. 0.0595531 0.05 0.0595531 .. 0.0595531 
        k : 2
    Block 15 cell size :
        i : 0.0799998 .. 0.0799998
        j : 0.219685 .. 0.219685 0.207132 .. 0.207132 0.219685 .. 0.219685 0.207132 .. 0.207132 
        k : 2
    Block 16 cell size :
        i : 0.08 .. 0.08
        j : 0.219685 .. 0.219685 0.207132 .. 0.207132 0.219685 .. 0.219685 0.207132 .. 0.207132 
        k : 2
    Block 17 cell size :
        i : 0.80201 .. 0.80201 0.7735 .. 0.7735 0.80201 .. 0.80201 0.7735 .. 0.7735 
        j : 0.19799 .. 0.19799 0.193913 .. 0.202223 0.19799 .. 0.19799 0.193913 .. 0.202223 
        k : 2
    Block 18 cell size :
        i : 0.80201 .. 0.80201
        j : 0.255025 .. 0.255026
        k : 2
    Block 19 cell size :
        i : 0.19799 .. 0.19799 0.195966 .. 0.208677 0.19799 .. 0.19799 0.195966 .. 0.208677 
        j : 0.255025 .. 0.255026 0.184339 .. 0.184339 0.255025 .. 0.255026 0.184339 .. 0.184339 
        k : 2

No patch pairs to merge

Writing polyMesh
----------------
Mesh Information
----------------
  boundingBox: (-5 -1.5 -1) (5 2.5 1)
  nPoints: 994
  nCells: 440
  nFaces: 1817
  nInternalFaces: 823
----------------
Patches
----------------
  patch 0 (start: 823 size: 17) name: left
  patch 1 (start: 840 size: 17) name: right
  patch 2 (start: 857 size: 20) name: down
  patch 3 (start: 877 size: 20) name: up
  patch 4 (start: 897 size: 40) name: cylinder
  patch 5 (start: 937 size: 880) name: defaultFaces

End

[17:40:13] Post-mesh case setup (functionObjects: forces if cylinder patch detected)...
[case_setup_low] Added forces functionObject for patch: cylinder
[case_setup_low] Updated OpenFOAM dictionaries in /home/kalel1938/Documents/codex_projects/adaptive_model_reduction/cases/low
[17:40:13] Runner: foamRun  Solver: incompressibleFluid
[17:40:13] Running solver...
/*---------------------------------------------------------------------------*\
  =========                 |
  \\      /  F ield         | OpenFOAM: The Open Source CFD Toolbox
   \\    /   O peration     | Website:  https://openfoam.org
    \\  /    A nd           | Version:  13
     \\/     M anipulation  |
\*---------------------------------------------------------------------------*/
Build  : 13-cde978a97c93
Exec   : foamRun -solver incompressibleFluid
Date   : Dec 18 2025
Time   : 17:40:13
Host   : "kalel1938-asus"
PID    : 629271
I/O    : uncollated
Case   : /home/kalel1938/Documents/codex_projects/adaptive_model_reduction/cases/low
nProcs : 1
sigFpe : Enabling floating point exception trapping (FOAM_SIGFPE).
fileModificationChecking : Monitoring run-time modified files using timeStampMaster (fileModificationSkew 10)
allowSystemOperations : Allowing user-supplied system call operations

// * * * * * * * * * * * * * * * * * * * * * * * * * * * * * * * * * * * * * //
Create time

Create mesh for time = 0

Selecting solver incompressibleFluid
Selecting viscosity model constant
Selecting turbulence model type laminar
    Selecting laminar stress model generalisedNewtonian
        Selecting generalised Newtonian model CrossPowerLaw
No MRF models present

Courant Number mean: 0.000271214 max: 0.00342763

PIMPLE: No convergence criteria found


PIMPLE: No corrector convergence criteria found
        Calculations will do 5 corrections


PIMPLE: Operating solver in transient mode with 5 outer correctors



Starting time loop

volFieldValue UminMag read:
    number of cells = 440
    volume = 73.7426
    operation = minMag

volFieldValue UmaxMag read:
    number of cells = 440
    volume = 73.7426
    operation = maxMag

volFieldValue pMin read:
    number of cells = 440
    volume = 73.7426
    operation = min

volFieldValue pMax read:
    number of cells = 440
    volume = 73.7426
    operation = max

volFieldValue UminMag write:
    minMag(all) of U = 0 at location (0.673676 0.788773 2.22139e-17) in cell 0

volFieldValue UmaxMag write:
    maxMag(all) of U = 0 at location (0.673676 0.788773 2.22139e-17) in cell 0

volFieldValue pMin write:
    min(all) of p = 0 at location (0.673676 0.788773 2.22139e-17) in cell 0

volFieldValue pMax write:
    max(all) of p = 0 at location (0.673676 0.788773 2.22139e-17) in cell 0

Courant Number mean: 0.000271214 max: 0.00342763
Time = 0.005s

PIMPLE: Iteration 1
GAMG:  Solving for p, Initial residual = 1, Final residual = 4.45187e-07, No Iterations 14
time step continuity errors : sum local = 2.41481e-10, global = -5.25248e-11
PIMPLE: Iteration 2
GAMG:  Solving for p, Initial residual = 0.110649, Final residual = 3.4794e-07, No Iterations 9
time step continuity errors : sum local = 6.74647e-09, global = -2.35557e-09
PIMPLE: Iteration 3
GAMG:  Solving for p, Initial residual = 0.0174506, Final residual = 4.39e-07, No Iterations 8
time step continuity errors : sum local = 9.62595e-09, global = -2.80027e-09
PIMPLE: Iteration 4
GAMG:  Solving for p, Initial residual = 0.00501339, Final residual = 9.69051e-07, No Iterations 5
time step continuity errors : sum local = 2.18385e-08, global = -7.13157e-09
PIMPLE: Iteration 5
GAMG:  Solving for p, Initial residual = 0.00109982, Final residual = 4.9639e-07, No Iterations 5
time step continuity errors : sum local = 1.12435e-08, global = -6.24544e-10, cumulative = -6.24544e-10
ExecutionTime = 0.053667 s  ClockTime = 0 s

Courant Number mean: 0.0145825 max: 0.0870448
Time = 0.01s

PIMPLE: Iteration 1
GAMG:  Solving for p, Initial residual = 0.0631691, Final residual = 5.11314e-07, No Iterations 10
time step continuity errors : sum local = 9.70593e-09, global = 5.333e-10
PIMPLE: Iteration 2
GAMG:  Solving for p, Initial residual = 0.256492, Final residual = 5.34126e-07, No Iterations 9
time step continuity errors : sum local = 2.94231e-09, global = -4.22822e-10
PIMPLE: Iteration 3
GAMG:  Solving for p, Initial residual = 0.0628302, Final residual = 4.97085e-07, No Iterations 8
time step continuity errors : sum local = 2.27691e-09, global = -8.57341e-10
PIMPLE: Iteration 4
GAMG:  Solving for p, Initial residual = 0.0237347, Final residual = 5.81204e-07, No Iterations 8
time step continuity errors : sum local = 2.56096e-09, global = -8.63942e-10
PIMPLE: Iteration 5
GAMG:  Solving for p, Initial residual = 0.0128517, Final residual = 9.69922e-07, No Iterations 7
time step continuity errors : sum local = 4.48103e-09, global = -3.69061e-10, cumulative = -9.93605e-10
ExecutionTime = 0.05684 s  ClockTime = 0 s

Courant Number mean: 0.0148707 max: 0.0814917
Time = 0.015s

PIMPLE: Iteration 1
GAMG:  Solving for p, Initial residual = 0.0583924, Final residual = 2.94203e-07, No Iterations 10
time step continuity errors : sum local = 1.37964e-09, global = 8.94626e-10
PIMPLE: Iteration 2
GAMG:  Solving for p, Initial residual = 0.0569096, Final residual = 9.85711e-07, No Iterations 8
time step continuity errors : sum local = 2.60166e-09, global = 2.63648e-10
PIMPLE: Iteration 3
GAMG:  Solving for p, Initial residual = 0.0243617, Final residual = 4.01241e-07, No Iterations 8
time step continuity errors : sum local = 1.11139e-09, global = -6.1536e-10
PIMPLE: Iteration 4
GAMG:  Solving for p, Initial residual = 0.0120283, Final residual = 3.51344e-07, No Iterations 8
time step continuity errors : sum local = 1.02771e-09, global = -5.31808e-10
PIMPLE: Iteration 5
GAMG:  Solving for p, Initial residual = 0.00879825, Final residual = 9.28628e-07, No Iterations 7
time step continuity errors : sum local = 2.89936e-09, global = 1.39128e-10, cumulative = -8.54476e-10
ExecutionTime = 0.059967 s  ClockTime = 0 s

Courant Number mean: 0.0151739 max: 0.0775831
Time = 0.02s

PIMPLE: Iteration 1
GAMG:  Solving for p, Initial residual = 0.0431119, Final residual = 5.01539e-07, No Iterations 9
time step continuity errors : sum local = 1.60986e-09, global = 6.65633e-10
PIMPLE: Iteration 2
GAMG:  Solving for p, Initial residual = 0.0297133, Final residual = 6.40532e-07, No Iterations 8
time step continuity errors : sum local = 1.53116e-09, global = -4.99447e-10
PIMPLE: Iteration 3
GAMG:  Solving for p, Initial residual = 0.0143745, Final residual = 3.17308e-07, No Iterations 8
time step continuity errors : sum local = 8.02667e-10, global = -2.53803e-10
PIMPLE: Iteration 4
GAMG:  Solving for p, Initial residual = 0.00854009, Final residual = 3.43756e-07, No Iterations 8
time step continuity errors : sum local = 8.96926e-10, global = -5.51311e-10
PIMPLE: Iteration 5
GAMG:  Solving for p, Initial residual = 0.00609943, Final residual = 7.79155e-07, No Iterations 7
time step continuity errors : sum local = 2.11273e-09, global = -1.79106e-11, cumulative = -8.72387e-10
ExecutionTime = 0.063799 s  ClockTime = 0 s

Courant Number mean: 0.0154251 max: 0.0853741
Time = 0.025s

PIMPLE: Iteration 1
GAMG:  Solving for p, Initial residual = 0.0276465, Final residual = 5.96334e-07, No Iterations 9
time step continuity errors : sum local = 1.67083e-09, global = -1.83782e-10
PIMPLE: Iteration 2
GAMG:  Solving for p, Initial residual = 0.0174934, Final residual = 2.86622e-07, No Iterations 8
time step continuity errors : sum local = 6.57365e-10, global = -3.12008e-10
PIMPLE: Iteration 3
GAMG:  Solving for p, Initial residual = 0.0094081, Final residual = 9.59803e-07, No Iterations 7
time step continuity errors : sum local = 2.25982e-09, global = -5.40052e-11
PIMPLE: Iteration 4
GAMG:  Solving for p, Initial residual = 0.00506822, Final residual = 2.6443e-07, No Iterations 8
time step continuity errors : sum local = 6.38513e-10, global = -4.31866e-10
PIMPLE: Iteration 5
GAMG:  Solving for p, Initial residual = 0.00395101, Final residual = 6.46401e-07, No Iterations 7
time step continuity errors : sum local = 1.60392e-09, global = 1.3452e-10, cumulative = -7.37867e-10
ExecutionTime = 0.067169 s  ClockTime = 0 s

Courant Number mean: 0.0156347 max: 0.0905803
Time = 0.03s

PIMPLE: Iteration 1
GAMG:  Solving for p, Initial residual = 0.0215866, Final residual = 8.1955e-07, No Iterations 8
time step continuity errors : sum local = 2.07653e-09, global = 8.58518e-10
PIMPLE: Iteration 2
GAMG:  Solving for p, Initial residual = 0.0135922, Final residual = 6.60959e-07, No Iterations 7
time step continuity errors : sum local = 1.49023e-09, global = -1.00605e-09
PIMPLE: Iteration 3
GAMG:  Solving for p, Initial residual = 0.00669467, Final residual = 6.20585e-07, No Iterations 7
time step continuity errors : sum local = 1.40938e-09, global = -1.35911e-10
PIMPLE: Iteration 4
GAMG:  Solving for p, Initial residual = 0.00377312, Final residual = 7.98283e-07, No Iterations 7
time step continuity errors : sum local = 1.83953e-09, global = 2.3831e-10
PIMPLE: Iteration 5
GAMG:  Solving for p, Initial residual = 0.00271873, Final residual = 8.84785e-07, No Iterations 6
time step continuity errors : sum local = 2.07168e-09, global = -1.18399e-09, cumulative = -1.92186e-09
ExecutionTime = 0.070253 s  ClockTime = 0 s

Courant Number mean: 0.0157881 max: 0.093809
Time = 0.035s

PIMPLE: Iteration 1
GAMG:  Solving for p, Initial residual = 0.0159562, Final residual = 6.37302e-07, No Iterations 8
time step continuity errors : sum local = 1.51504e-09, global = 8.83712e-10
PIMPLE: Iteration 2
GAMG:  Solving for p, Initial residual = 0.010592, Final residual = 5.40447e-07, No Iterations 7
time step continuity errors : sum local = 1.1804e-09, global = -8.32204e-10
PIMPLE: Iteration 3
GAMG:  Solving for p, Initial residual = 0.00483424, Final residual = 4.38662e-07, No Iterations 7
time step continuity errors : sum local = 9.62341e-10, global = -1.1277e-10
PIMPLE: Iteration 4
GAMG:  Solving for p, Initial residual = 0.00268277, Final residual = 5.75383e-07, No Iterations 7
time step continuity errors : sum local = 1.27468e-09, global = 1.87181e-10
PIMPLE: Iteration 5
GAMG:  Solving for p, Initial residual = 0.00193534, Final residual = 5.99426e-07, No Iterations 6
time step continuity errors : sum local = 1.34172e-09, global = -7.50527e-10, cumulative = -2.67238e-09
ExecutionTime = 0.073372 s  ClockTime = 0 s

Courant Number mean: 0.0158984 max: 0.0959083
Time = 0.04s

PIMPLE: Iteration 1
GAMG:  Solving for p, Initial residual = 0.0122614, Final residual = 4.59573e-07, No Iterations 8
time step continuity errors : sum local = 1.03851e-09, global = 6.09781e-10
PIMPLE: Iteration 2
GAMG:  Solving for p, Initial residual = 0.00816959, Final residual = 4.39817e-07, No Iterations 7
time step continuity errors : sum local = 9.3445e-10, global = -6.69988e-10
PIMPLE: Iteration 3
GAMG:  Solving for p, Initial residual = 0.00354153, Final residual = 8.26211e-07, No Iterations 6
time step continuity errors : sum local = 1.76046e-09, global = -4.18943e-10
PIMPLE: Iteration 4
GAMG:  Solving for p, Initial residual = 0.00189574, Final residual = 7.00795e-07, No Iterations 6
time step continuity errors : sum local = 1.50244e-09, global = -1.00531e-09
PIMPLE: Iteration 5
GAMG:  Solving for p, Initial residual = 0.00135702, Final residual = 4.02783e-07, No Iterations 6
time step continuity errors : sum local = 8.69223e-10, global = -4.42974e-10, cumulative = -3.11536e-09
ExecutionTime = 0.076684 s  ClockTime = 0 s

Courant Number mean: 0.015977 max: 0.0972761
Time = 0.045s

PIMPLE: Iteration 1
GAMG:  Solving for p, Initial residual = 0.00956875, Final residual = 3.14831e-07, No Iterations 8
time step continuity errors : sum local = 6.82996e-10, global = 3.21894e-10
PIMPLE: Iteration 2
GAMG:  Solving for p, Initial residual = 0.00622567, Final residual = 3.4282e-07, No Iterations 7
time step continuity errors : sum local = 7.11108e-10, global = -5.13609e-10
PIMPLE: Iteration 3
GAMG:  Solving for p, Initial residual = 0.00251356, Final residual = 6.09754e-07, No Iterations 6
time step continuity errors : sum local = 1.26792e-09, global = -2.25768e-10
PIMPLE: Iteration 4
GAMG:  Solving for p, Initial residual = 0.00131989, Final residual = 4.72739e-07, No Iterations 6
time step continuity errors : sum local = 9.8694e-10, global = -6.57391e-10
PIMPLE: Iteration 5
GAMG:  Solving for p, Initial residual = 0.000943161, Final residual = 2.76011e-07, No Iterations 6
time step continuity errors : sum local = 5.78605e-10, global = -2.52408e-10, cumulative = -3.36777e-09
ExecutionTime = 0.079702 s  ClockTime = 0 s

Courant Number mean: 0.0160329 max: 0.0981631
Time = 0.05s

PIMPLE: Iteration 1
GAMG:  Solving for p, Initial residual = 0.00781208, Final residual = 7.42801e-07, No Iterations 7
time step continuity errors : sum local = 1.56123e-09, global = 4.85946e-10
PIMPLE: Iteration 2
GAMG:  Solving for p, Initial residual = 0.00471066, Final residual = 2.65236e-07, No Iterations 7
time step continuity errors : sum local = 5.39674e-10, global = -3.91285e-10
PIMPLE: Iteration 3
GAMG:  Solving for p, Initial residual = 0.00183264, Final residual = 4.58683e-07, No Iterations 6
time step continuity errors : sum local = 9.35207e-10, global = -1.00082e-10
PIMPLE: Iteration 4
GAMG:  Solving for p, Initial residual = 0.000929504, Final residual = 3.13408e-07, No Iterations 6
time step continuity errors : sum local = 6.40665e-10, global = -4.13698e-10
PIMPLE: Iteration 5
GAMG:  Solving for p, Initial residual = 0.000648078, Final residual = 7.37966e-07, No Iterations 5
time step continuity errors : sum local = 1.51244e-09, global = -2.13385e-10, cumulative = -3.58115e-09
ExecutionTime = 0.082589 s  ClockTime = 0 s

volFieldValue UminMag write:
    minMag(all) of U = 0.0116936 at location (-1.00864 -0.242154 0) in cell 364

volFieldValue UmaxMag write:
    maxMag(all) of U = 3.74154 at location (0.106611 1.72359 0) in cell 105

volFieldValue pMin write:
    min(all) of p = 0.00479802 at location (1.16368 0.279374 0) in cell 32

volFieldValue pMax write:
    max(all) of p = 267.541 at location (-4.59899 -1.37249 0) in cell 420

Courant Number mean: 0.0160736 max: 0.0987405
Time = 0.055s

PIMPLE: Iteration 1
GAMG:  Solving for p, Initial residual = 0.00599557, Final residual = 5.29274e-07, No Iterations 7
time step continuity errors : sum local = 1.08649e-09, global = 6.86359e-10
PIMPLE: Iteration 2
GAMG:  Solving for p, Initial residual = 0.00352752, Final residual = 8.03433e-07, No Iterations 6
time step continuity errors : sum local = 1.61183e-09, global = 3.52303e-10
PIMPLE: Iteration 3
GAMG:  Solving for p, Initial residual = 0.00129449, Final residual = 9.35106e-07, No Iterations 5
time step continuity errors : sum local = 1.8793e-09, global = -5.43645e-10
PIMPLE: Iteration 4
GAMG:  Solving for p, Initial residual = 0.000653765, Final residual = 9.15845e-07, No Iterations 5
time step continuity errors : sum local = 1.84374e-09, global = -1.04422e-11
PIMPLE: Iteration 5
GAMG:  Solving for p, Initial residual = 0.000444118, Final residual = 4.98061e-07, No Iterations 5
time step continuity errors : sum local = 1.00434e-09, global = -1.59204e-10, cumulative = -3.74035e-09
ExecutionTime = 0.085434 s  ClockTime = 0 s

Courant Number mean: 0.0161052 max: 0.0991183
Time = 0.06s

PIMPLE: Iteration 1
GAMG:  Solving for p, Initial residual = 0.0046523, Final residual = 4.96725e-07, No Iterations 7
time step continuity errors : sum local = 1.0029e-09, global = 7.2204e-10
PIMPLE: Iteration 2
GAMG:  Solving for p, Initial residual = 0.00268641, Final residual = 6.40275e-07, No Iterations 6
time step continuity errors : sum local = 1.2721e-09, global = 2.86786e-10
PIMPLE: Iteration 3
GAMG:  Solving for p, Initial residual = 0.000939057, Final residual = 6.38556e-07, No Iterations 5
time step continuity errors : sum local = 1.27085e-09, global = -4.34015e-10
PIMPLE: Iteration 4
GAMG:  Solving for p, Initial residual = 0.000467857, Final residual = 6.02284e-07, No Iterations 5
time step continuity errors : sum local = 1.20008e-09, global = -6.07159e-11
PIMPLE: Iteration 5
GAMG:  Solving for p, Initial residual = 0.000304, Final residual = 9.7783e-07, No Iterations 4
time step continuity errors : sum local = 1.95046e-09, global = -4.59705e-10, cumulative = -4.20006e-09
ExecutionTime = 0.088228 s  ClockTime = 0 s

Courant Number mean: 0.0161298 max: 0.0993665
Time = 0.065s

PIMPLE: Iteration 1
GAMG:  Solving for p, Initial residual = 0.0035695, Final residual = 4.54625e-07, No Iterations 7
time step continuity errors : sum local = 9.0763e-10, global = 6.56822e-10
PIMPLE: Iteration 2
GAMG:  Solving for p, Initial residual = 0.00210088, Final residual = 8.61673e-07, No Iterations 5
time step continuity errors : sum local = 1.70084e-09, global = -1.23488e-09
PIMPLE: Iteration 3
GAMG:  Solving for p, Initial residual = 0.000683913, Final residual = 4.47811e-07, No Iterations 5
time step continuity errors : sum local = 8.8531e-10, global = -3.22164e-10
PIMPLE: Iteration 4
GAMG:  Solving for p, Initial residual = 0.00033794, Final residual = 3.88018e-07, No Iterations 5
time step continuity errors : sum local = 7.67771e-10, global = -1.01069e-10
PIMPLE: Iteration 5
GAMG:  Solving for p, Initial residual = 0.000211805, Final residual = 6.81087e-07, No Iterations 4
time step continuity errors : sum local = 1.34859e-09, global = -3.00045e-10, cumulative = -4.5001e-09
ExecutionTime = 0.091017 s  ClockTime = 0 s

Courant Number mean: 0.0161489 max: 0.0995316
Time = 0.07s

PIMPLE: Iteration 1
GAMG:  Solving for p, Initial residual = 0.00270709, Final residual = 3.96461e-07, No Iterations 7
time step continuity errors : sum local = 7.85643e-10, global = 5.66635e-10
PIMPLE: Iteration 2
GAMG:  Solving for p, Initial residual = 0.00165909, Final residual = 7.14092e-07, No Iterations 5
time step continuity errors : sum local = 1.40365e-09, global = -1.01606e-09
PIMPLE: Iteration 3
GAMG:  Solving for p, Initial residual = 0.000513973, Final residual = 3.16106e-07, No Iterations 5
time step continuity errors : sum local = 6.22234e-10, global = -2.61623e-10
PIMPLE: Iteration 4
GAMG:  Solving for p, Initial residual = 0.000251728, Final residual = 7.98529e-07, No Iterations 4
time step continuity errors : sum local = 1.57286e-09, global = -3.12341e-10
PIMPLE: Iteration 5
GAMG:  Solving for p, Initial residual = 0.0001488, Final residual = 4.73758e-07, No Iterations 4
time step continuity errors : sum local = 9.33564e-10, global = -2.39363e-10, cumulative = -4.73947e-09
ExecutionTime = 0.094115 s  ClockTime = 0 s

Courant Number mean: 0.0161642 max: 0.0996422
Time = 0.075s

PIMPLE: Iteration 1
GAMG:  Solving for p, Initial residual = 0.00224387, Final residual = 3.42917e-07, No Iterations 7
time step continuity errors : sum local = 6.76159e-10, global = 4.85301e-10
PIMPLE: Iteration 2
GAMG:  Solving for p, Initial residual = 0.00135996, Final residual = 5.68475e-07, No Iterations 5
time step continuity errors : sum local = 1.11419e-09, global = -8.08523e-10
PIMPLE: Iteration 3
GAMG:  Solving for p, Initial residual = 0.000394338, Final residual = 8.19602e-07, No Iterations 4
time step continuity errors : sum local = 1.60842e-09, global = -1.06902e-10
PIMPLE: Iteration 4
GAMG:  Solving for p, Initial residual = 0.000191792, Final residual = 6.00437e-07, No Iterations 4
time step continuity errors : sum local = 1.17887e-09, global = -2.06827e-10
PIMPLE: Iteration 5
GAMG:  Solving for p, Initial residual = 0.000108043, Final residual = 3.46156e-07, No Iterations 4
time step continuity errors : sum local = 6.7984e-10, global = -1.39032e-10, cumulative = -4.8785e-09
ExecutionTime = 0.097543 s  ClockTime = 0 s

Courant Number mean: 0.0161769 max: 0.0997176
Time = 0.08s

PIMPLE: Iteration 1
GAMG:  Solving for p, Initial residual = 0.00177701, Final residual = 2.85759e-07, No Iterations 7
time step continuity errors : sum local = 5.6156e-10, global = 4.02334e-10
PIMPLE: Iteration 2
GAMG:  Solving for p, Initial residual = 0.00112578, Final residual = 4.60658e-07, No Iterations 5
time step continuity errors : sum local = 9.01208e-10, global = -6.4768e-10
PIMPLE: Iteration 3
GAMG:  Solving for p, Initial residual = 0.000316381, Final residual = 6.40226e-07, No Iterations 4
time step continuity errors : sum local = 1.25391e-09, global = -3.48988e-11
PIMPLE: Iteration 4
GAMG:  Solving for p, Initial residual = 0.000152701, Final residual = 4.80609e-07, No Iterations 4
time step continuity errors : sum local = 9.41624e-10, global = -8.75774e-11
PIMPLE: Iteration 5
GAMG:  Solving for p, Initial residual = 7.94623e-05, Final residual = 8.52715e-07, No Iterations 3
time step continuity errors : sum local = 1.67102e-09, global = -3.40593e-10, cumulative = -5.21909e-09
ExecutionTime = 0.100368 s  ClockTime = 0 s

Courant Number mean: 0.0161876 max: 0.0997697
Time = 0.085s

PIMPLE: Iteration 1
GAMG:  Solving for p, Initial residual = 0.00150284, Final residual = 8.98089e-07, No Iterations 6
time step continuity errors : sum local = 1.76085e-09, global = -4.17433e-10
PIMPLE: Iteration 2
GAMG:  Solving for p, Initial residual = 0.000956762, Final residual = 3.33053e-07, No Iterations 5
time step continuity errors : sum local = 6.5077e-10, global = -4.63242e-10
PIMPLE: Iteration 3
GAMG:  Solving for p, Initial residual = 0.000259208, Final residual = 4.99199e-07, No Iterations 4
time step continuity errors : sum local = 9.76374e-10, global = -1.34078e-11
PIMPLE: Iteration 4
GAMG:  Solving for p, Initial residual = 0.000123479, Final residual = 3.92807e-07, No Iterations 4
time step continuity errors : sum local = 7.685e-10, global = -1.74042e-11
PIMPLE: Iteration 5
GAMG:  Solving for p, Initial residual = 6.06606e-05, Final residual = 6.42393e-07, No Iterations 3
time step continuity errors : sum local = 1.25698e-09, global = -2.68475e-10, cumulative = -5.48757e-09
ExecutionTime = 0.103192 s  ClockTime = 0 s

Courant Number mean: 0.016197 max: 0.0998065
Time = 0.09s

PIMPLE: Iteration 1
GAMG:  Solving for p, Initial residual = 0.00130551, Final residual = 7.32006e-07, No Iterations 6
time step continuity errors : sum local = 1.43298e-09, global = -3.39403e-10
PIMPLE: Iteration 2
GAMG:  Solving for p, Initial residual = 0.000826253, Final residual = 2.66455e-07, No Iterations 5
time step continuity errors : sum local = 5.20182e-10, global = -3.61892e-10
PIMPLE: Iteration 3
GAMG:  Solving for p, Initial residual = 0.000223013, Final residual = 4.0503e-07, No Iterations 4
time step continuity errors : sum local = 7.9142e-10, global = 1.12506e-11
PIMPLE: Iteration 4
GAMG:  Solving for p, Initial residual = 0.000102051, Final residual = 3.25857e-07, No Iterations 4
time step continuity errors : sum local = 6.36858e-10, global = 1.55878e-11
PIMPLE: Iteration 5
GAMG:  Solving for p, Initial residual = 4.79496e-05, Final residual = 4.97641e-07, No Iterations 3
time step continuity errors : sum local = 9.72694e-10, global = -2.25996e-10, cumulative = -5.71356e-09
ExecutionTime = 0.106008 s  ClockTime = 0 s

Courant Number mean: 0.0162053 max: 0.099833
Time = 0.095s

PIMPLE: Iteration 1
GAMG:  Solving for p, Initial residual = 0.00114825, Final residual = 5.89175e-07, No Iterations 6
time step continuity errors : sum local = 1.15207e-09, global = -2.73173e-10
PIMPLE: Iteration 2
GAMG:  Solving for p, Initial residual = 0.000725037, Final residual = 7.97327e-07, No Iterations 4
time step continuity errors : sum local = 1.55558e-09, global = 8.16471e-11
PIMPLE: Iteration 3
GAMG:  Solving for p, Initial residual = 0.000192724, Final residual = 9.5555e-07, No Iterations 3
time step continuity errors : sum local = 1.86578e-09, global = -6.02573e-10
PIMPLE: Iteration 4
GAMG:  Solving for p, Initial residual = 8.56675e-05, Final residual = 8.10177e-07, No Iterations 3
time step continuity errors : sum local = 1.5822e-09, global = -4.33516e-10
PIMPLE: Iteration 5
GAMG:  Solving for p, Initial residual = 3.93131e-05, Final residual = 3.94871e-07, No Iterations 3
time step continuity errors : sum local = 7.71215e-10, global = -1.63259e-10, cumulative = -5.87682e-09
ExecutionTime = 0.10879 s  ClockTime = 0 s

Courant Number mean: 0.0162127 max: 0.0998525
Time = 0.1s

PIMPLE: Iteration 1
GAMG:  Solving for p, Initial residual = 0.00100624, Final residual = 8.34874e-07, No Iterations 5
time step continuity errors : sum local = 1.63112e-09, global = 1.13868e-09
PIMPLE: Iteration 2
GAMG:  Solving for p, Initial residual = 0.000645003, Final residual = 5.86311e-07, No Iterations 4
time step continuity errors : sum local = 1.14329e-09, global = -9.07847e-11
PIMPLE: Iteration 3
GAMG:  Solving for p, Initial residual = 0.000169559, Final residual = 8.08745e-07, No Iterations 3
time step continuity errors : sum local = 1.57813e-09, global = -5.207e-10
PIMPLE: Iteration 4
GAMG:  Solving for p, Initial residual = 7.31874e-05, Final residual = 6.81105e-07, No Iterations 3
time step continuity errors : sum local = 1.32926e-09, global = -3.89531e-10
PIMPLE: Iteration 5
GAMG:  Solving for p, Initial residual = 3.2772e-05, Final residual = 3.21293e-07, No Iterations 3
time step continuity errors : sum local = 6.27082e-10, global = -1.42986e-10, cumulative = -6.01981e-09
ExecutionTime = 0.111616 s  ClockTime = 0 s

volFieldValue UminMag write:
    minMag(all) of U = 0.0205725 at location (1.03411 -0.081386 -2.37561e-17) in cell 295

volFieldValue UmaxMag write:
    maxMag(all) of U = 3.78526 at location (0.106611 1.72359 0) in cell 105

volFieldValue pMin write:
    min(all) of p = -1.59866 at location (1.10565 0.457974 -1.00818e-16) in cell 37

volFieldValue pMax write:
    max(all) of p = 253.91 at location (-4.59899 -1.37249 0) in cell 420

Courant Number mean: 0.0162195 max: 0.0998672
Time = 0.105s

PIMPLE: Iteration 1
GAMG:  Solving for p, Initial residual = 0.00089118, Final residual = 6.54399e-07, No Iterations 5
time step continuity errors : sum local = 1.27764e-09, global = 8.94265e-10
PIMPLE: Iteration 2
GAMG:  Solving for p, Initial residual = 0.000576967, Final residual = 4.91639e-07, No Iterations 4
time step continuity errors : sum local = 9.58326e-10, global = -1.47643e-10
PIMPLE: Iteration 3
GAMG:  Solving for p, Initial residual = 0.00014945, Final residual = 7.04931e-07, No Iterations 3
time step continuity errors : sum local = 1.37497e-09, global = -4.55742e-10
PIMPLE: Iteration 4
GAMG:  Solving for p, Initial residual = 6.29789e-05, Final residual = 5.78692e-07, No Iterations 3
time step continuity errors : sum local = 1.12888e-09, global = -3.41323e-10
PIMPLE: Iteration 5
GAMG:  Solving for p, Initial residual = 2.80078e-05, Final residual = 2.6749e-07, No Iterations 3
time step continuity errors : sum local = 5.2183e-10, global = -1.29366e-10, cumulative = -6.14917e-09
ExecutionTime = 0.115222 s  ClockTime = 0 s

Courant Number mean: 0.0162258 max: 0.0998786
Time = 0.11s

PIMPLE: Iteration 1
GAMG:  Solving for p, Initial residual = 0.000799867, Final residual = 5.09334e-07, No Iterations 5
time step continuity errors : sum local = 9.93961e-10, global = 6.97116e-10
PIMPLE: Iteration 2
GAMG:  Solving for p, Initial residual = 0.00052077, Final residual = 4.26172e-07, No Iterations 4
time step continuity errors : sum local = 8.30532e-10, global = -1.79736e-10
PIMPLE: Iteration 3
GAMG:  Solving for p, Initial residual = 0.00013384, Final residual = 6.27309e-07, No Iterations 3
time step continuity errors : sum local = 1.22324e-09, global = -3.98923e-10
PIMPLE: Iteration 4
GAMG:  Solving for p, Initial residual = 5.48526e-05, Final residual = 5.00945e-07, No Iterations 3
time step continuity errors : sum local = 9.76931e-10, global = -2.99193e-10
PIMPLE: Iteration 5
GAMG:  Solving for p, Initial residual = 2.41111e-05, Final residual = 9.42009e-07, No Iterations 2
time step continuity errors : sum local = 1.83716e-09, global = -1.24268e-10, cumulative = -6.27344e-09
ExecutionTime = 0.11781 s  ClockTime = 0 s

Courant Number mean: 0.0162315 max: 0.0998875
Time = 0.115s

PIMPLE: Iteration 1
GAMG:  Solving for p, Initial residual = 0.000727882, Final residual = 3.63323e-07, No Iterations 5
time step continuity errors : sum local = 7.08779e-10, global = 4.94551e-10
PIMPLE: Iteration 2
GAMG:  Solving for p, Initial residual = 0.000471889, Final residual = 3.67372e-07, No Iterations 4
time step continuity errors : sum local = 7.15831e-10, global = -2.09939e-10
PIMPLE: Iteration 3
GAMG:  Solving for p, Initial residual = 0.000119809, Final residual = 5.58628e-07, No Iterations 3
time step continuity errors : sum local = 1.08909e-09, global = -3.47299e-10
PIMPLE: Iteration 4
GAMG:  Solving for p, Initial residual = 4.82681e-05, Final residual = 4.3898e-07, No Iterations 3
time step continuity errors : sum local = 8.559e-10, global = -2.62493e-10
PIMPLE: Iteration 5
GAMG:  Solving for p, Initial residual = 2.10996e-05, Final residual = 7.98645e-07, No Iterations 2
time step continuity errors : sum local = 1.5572e-09, global = -8.48698e-11, cumulative = -6.35831e-09
ExecutionTime = 0.120396 s  ClockTime = 0 s

Courant Number mean: 0.016237 max: 0.0998946
Time = 0.12s

PIMPLE: Iteration 1
GAMG:  Solving for p, Initial residual = 0.000670348, Final residual = 2.75743e-07, No Iterations 5
time step continuity errors : sum local = 5.3779e-10, global = 3.65619e-10
PIMPLE: Iteration 2
GAMG:  Solving for p, Initial residual = 0.000430239, Final residual = 3.33718e-07, No Iterations 4
time step continuity errors : sum local = 6.50168e-10, global = -2.11873e-10
PIMPLE: Iteration 3
GAMG:  Solving for p, Initial residual = 0.000108624, Final residual = 5.07821e-07, No Iterations 3
time step continuity errors : sum local = 9.89865e-10, global = -3.00037e-10
PIMPLE: Iteration 4
GAMG:  Solving for p, Initial residual = 4.27221e-05, Final residual = 3.86085e-07, No Iterations 3
time step continuity errors : sum local = 7.52625e-10, global = -2.28278e-10
PIMPLE: Iteration 5
GAMG:  Solving for p, Initial residual = 1.85206e-05, Final residual = 6.84333e-07, No Iterations 2
time step continuity errors : sum local = 1.33406e-09, global = -4.97766e-11, cumulative = -6.40809e-09
ExecutionTime = 0.123035 s  ClockTime = 0 s

Courant Number mean: 0.0162421 max: 0.0999003
Time = 0.125s

PIMPLE: Iteration 1
GAMG:  Solving for p, Initial residual = 0.000621424, Final residual = 8.1397e-07, No Iterations 4
time step continuity errors : sum local = 1.58718e-09, global = -3.71198e-11
PIMPLE: Iteration 2
GAMG:  Solving for p, Initial residual = 0.000393361, Final residual = 2.98082e-07, No Iterations 4
time step continuity errors : sum local = 5.80683e-10, global = -1.99255e-10
PIMPLE: Iteration 3
GAMG:  Solving for p, Initial residual = 9.84787e-05, Final residual = 4.54263e-07, No Iterations 3
time step continuity errors : sum local = 8.85331e-10, global = -2.73454e-10
PIMPLE: Iteration 4
GAMG:  Solving for p, Initial residual = 3.82053e-05, Final residual = 3.42783e-07, No Iterations 3
time step continuity errors : sum local = 6.68106e-10, global = -1.99467e-10
PIMPLE: Iteration 5
GAMG:  Solving for p, Initial residual = 1.64582e-05, Final residual = 5.9641e-07, No Iterations 2
time step continuity errors : sum local = 1.16247e-09, global = -4.02866e-11, cumulative = -6.44838e-09
ExecutionTime = 0.126186 s  ClockTime = 0 s

Courant Number mean: 0.016247 max: 0.0999051
Time = 0.13s

PIMPLE: Iteration 1
GAMG:  Solving for p, Initial residual = 0.000584287, Final residual = 6.44111e-07, No Iterations 4
time step continuity errors : sum local = 1.25575e-09, global = 8.97181e-11
PIMPLE: Iteration 2
GAMG:  Solving for p, Initial residual = 0.000361466, Final residual = 2.78655e-07, No Iterations 4
time step continuity errors : sum local = 5.42794e-10, global = -1.77128e-10
PIMPLE: Iteration 3
GAMG:  Solving for p, Initial residual = 8.99121e-05, Final residual = 4.17828e-07, No Iterations 3
time step continuity errors : sum local = 8.14228e-10, global = -2.36882e-10
PIMPLE: Iteration 4
GAMG:  Solving for p, Initial residual = 3.41874e-05, Final residual = 3.04849e-07, No Iterations 3
time step continuity errors : sum local = 5.94098e-10, global = -1.73886e-10
PIMPLE: Iteration 5
GAMG:  Solving for p, Initial residual = 1.4608e-05, Final residual = 5.21194e-07, No Iterations 2
time step continuity errors : sum local = 1.01574e-09, global = -1.8925e-11, cumulative = -6.4673e-09
ExecutionTime = 0.129008 s  ClockTime = 0 s

Courant Number mean: 0.0162517 max: 0.0999089
Time = 0.135s

PIMPLE: Iteration 1
GAMG:  Solving for p, Initial residual = 0.000563281, Final residual = 5.17376e-07, No Iterations 4
time step continuity errors : sum local = 1.00852e-09, global = 1.86628e-10
PIMPLE: Iteration 2
GAMG:  Solving for p, Initial residual = 0.00033279, Final residual = 2.61872e-07, No Iterations 4
time step continuity errors : sum local = 5.10068e-10, global = -1.50502e-10
PIMPLE: Iteration 3
GAMG:  Solving for p, Initial residual = 8.21501e-05, Final residual = 3.84357e-07, No Iterations 3
time step continuity errors : sum local = 7.4893e-10, global = -2.04433e-10
PIMPLE: Iteration 4
GAMG:  Solving for p, Initial residual = 3.08034e-05, Final residual = 9.32678e-07, No Iterations 2
time step continuity errors : sum local = 1.81744e-09, global = 1.45186e-10
PIMPLE: Iteration 5
GAMG:  Solving for p, Initial residual = 1.31331e-05, Final residual = 5.47971e-07, No Iterations 2
time step continuity errors : sum local = 1.0678e-09, global = -1.61067e-10, cumulative = -6.62837e-09
ExecutionTime = 0.131795 s  ClockTime = 0 s

Courant Number mean: 0.0162563 max: 0.0999121
Time = 0.14s

PIMPLE: Iteration 1
GAMG:  Solving for p, Initial residual = 0.000540013, Final residual = 4.32651e-07, No Iterations 4
time step continuity errors : sum local = 8.43267e-10, global = 2.59238e-10
PIMPLE: Iteration 2
GAMG:  Solving for p, Initial residual = 0.000309068, Final residual = 2.48488e-07, No Iterations 4
time step continuity errors : sum local = 4.83972e-10, global = -1.23084e-10
PIMPLE: Iteration 3
GAMG:  Solving for p, Initial residual = 7.55559e-05, Final residual = 3.56499e-07, No Iterations 3
time step continuity errors : sum local = 6.94593e-10, global = -1.66533e-10
PIMPLE: Iteration 4
GAMG:  Solving for p, Initial residual = 2.79018e-05, Final residual = 8.25705e-07, No Iterations 2
time step continuity errors : sum local = 1.60885e-09, global = 1.4093e-10
PIMPLE: Iteration 5
GAMG:  Solving for p, Initial residual = 1.17534e-05, Final residual = 4.8506e-07, No Iterations 2
time step continuity errors : sum local = 9.45125e-10, global = -1.27365e-10, cumulative = -6.75573e-09
ExecutionTime = 0.134527 s  ClockTime = 0 s

Courant Number mean: 0.0162608 max: 0.0999148
Time = 0.145s

PIMPLE: Iteration 1
GAMG:  Solving for p, Initial residual = 0.000492541, Final residual = 3.85653e-07, No Iterations 4
time step continuity errors : sum local = 7.51564e-10, global = 2.65126e-10
PIMPLE: Iteration 2
GAMG:  Solving for p, Initial residual = 0.000286255, Final residual = 2.35199e-07, No Iterations 4
time step continuity errors : sum local = 4.58041e-10, global = -9.63954e-11
PIMPLE: Iteration 3
GAMG:  Solving for p, Initial residual = 6.8981e-05, Final residual = 3.31871e-07, No Iterations 3
time step continuity errors : sum local = 6.46526e-10, global = -1.37232e-10
PIMPLE: Iteration 4
GAMG:  Solving for p, Initial residual = 2.54947e-05, Final residual = 7.39523e-07, No Iterations 2
time step continuity errors : sum local = 1.44073e-09, global = 1.34601e-10
PIMPLE: Iteration 5
GAMG:  Solving for p, Initial residual = 1.06172e-05, Final residual = 4.40777e-07, No Iterations 2
time step continuity errors : sum local = 8.58725e-10, global = -9.98796e-11, cumulative = -6.85561e-09
ExecutionTime = 0.137299 s  ClockTime = 0 s

Courant Number mean: 0.016265 max: 0.0999171
Time = 0.15s

PIMPLE: Iteration 1
GAMG:  Solving for p, Initial residual = 0.000451097, Final residual = 3.47371e-07, No Iterations 4
time step continuity errors : sum local = 6.76866e-10, global = 2.59879e-10
PIMPLE: Iteration 2
GAMG:  Solving for p, Initial residual = 0.000266031, Final residual = 9.7699e-07, No Iterations 3
time step continuity errors : sum local = 1.90251e-09, global = -3.89637e-10
PIMPLE: Iteration 3
GAMG:  Solving for p, Initial residual = 6.37648e-05, Final residual = 2.90097e-07, No Iterations 3
time step continuity errors : sum local = 5.65084e-10, global = -1.73184e-10
PIMPLE: Iteration 4
GAMG:  Solving for p, Initial residual = 2.37678e-05, Final residual = 6.44966e-07, No Iterations 2
time step continuity errors : sum local = 1.2564e-09, global = 2.10679e-10
PIMPLE: Iteration 5
GAMG:  Solving for p, Initial residual = 9.6616e-06, Final residual = 3.97348e-07, No Iterations 2
time step continuity errors : sum local = 7.74043e-10, global = -4.27166e-11, cumulative = -6.89833e-09
ExecutionTime = 0.140051 s  ClockTime = 0 s

volFieldValue UminMag write:
    minMag(all) of U = 0.00982981 at location (1.03411 -0.081386 -2.37561e-17) in cell 295

volFieldValue UmaxMag write:
    maxMag(all) of U = 3.78611 at location (0.106611 1.72359 0) in cell 105

volFieldValue pMin write:
    min(all) of p = -2.27093 at location (1.03199 0.427466 0) in cell 36

volFieldValue pMax write:
    max(all) of p = 252.892 at location (-4.59899 -1.37249 0) in cell 420

Courant Number mean: 0.016269 max: 0.099919
Time = 0.155s

PIMPLE: Iteration 1
GAMG:  Solving for p, Initial residual = 0.00041536, Final residual = 3.17236e-07, No Iterations 4
time step continuity errors : sum local = 6.18093e-10, global = 2.4644e-10
PIMPLE: Iteration 2
GAMG:  Solving for p, Initial residual = 0.000248155, Final residual = 9.24089e-07, No Iterations 3
time step continuity errors : sum local = 1.79946e-09, global = -4.07412e-10
PIMPLE: Iteration 3
GAMG:  Solving for p, Initial residual = 5.92958e-05, Final residual = 2.69743e-07, No Iterations 3
time step continuity errors : sum local = 5.25417e-10, global = -1.52355e-10
PIMPLE: Iteration 4
GAMG:  Solving for p, Initial residual = 2.20399e-05, Final residual = 5.77419e-07, No Iterations 2
time step continuity errors : sum local = 1.12477e-09, global = 1.93387e-10
PIMPLE: Iteration 5
GAMG:  Solving for p, Initial residual = 8.76548e-06, Final residual = 3.544e-07, No Iterations 2
time step continuity errors : sum local = 6.9035e-10, global = -2.6268e-11, cumulative = -6.9246e-09
ExecutionTime = 0.142904 s  ClockTime = 0 s

Courant Number mean: 0.0162729 max: 0.0999205
Time = 0.16s

PIMPLE: Iteration 1
GAMG:  Solving for p, Initial residual = 0.000391568, Final residual = 2.94469e-07, No Iterations 4
time step continuity errors : sum local = 5.73703e-10, global = 2.21001e-10
PIMPLE: Iteration 2
GAMG:  Solving for p, Initial residual = 0.000232285, Final residual = 8.69574e-07, No Iterations 3
time step continuity errors : sum local = 1.69327e-09, global = -4.21627e-10
PIMPLE: Iteration 3
GAMG:  Solving for p, Initial residual = 5.50913e-05, Final residual = 9.51498e-07, No Iterations 2
time step continuity errors : sum local = 1.85331e-09, global = 2.93356e-11
PIMPLE: Iteration 4
GAMG:  Solving for p, Initial residual = 2.03479e-05, Final residual = 6.30881e-07, No Iterations 2
time step continuity errors : sum local = 1.22885e-09, global = -3.08098e-13
PIMPLE: Iteration 5
GAMG:  Solving for p, Initial residual = 8.15193e-06, Final residual = 2.95365e-07, No Iterations 2
time step continuity errors : sum local = 5.75332e-10, global = -4.78494e-11, cumulative = -6.97245e-09
ExecutionTime = 0.14567 s  ClockTime = 0 s

Courant Number mean: 0.0162766 max: 0.0999218
Time = 0.165s

PIMPLE: Iteration 1
GAMG:  Solving for p, Initial residual = 0.000369205, Final residual = 2.76136e-07, No Iterations 4
time step continuity errors : sum local = 5.37962e-10, global = 1.91304e-10
PIMPLE: Iteration 2
GAMG:  Solving for p, Initial residual = 0.000217591, Final residual = 8.20122e-07, No Iterations 3
time step continuity errors : sum local = 1.59697e-09, global = -4.37728e-10
PIMPLE: Iteration 3
GAMG:  Solving for p, Initial residual = 5.13102e-05, Final residual = 8.81529e-07, No Iterations 2
time step continuity errors : sum local = 1.71699e-09, global = 4.02172e-11
PIMPLE: Iteration 4
GAMG:  Solving for p, Initial residual = 1.90027e-05, Final residual = 5.7222e-07, No Iterations 2
time step continuity errors : sum local = 1.11457e-09, global = 2.21072e-11
PIMPLE: Iteration 5
GAMG:  Solving for p, Initial residual = 7.47652e-06, Final residual = 9.63572e-07, No Iterations 1
time step continuity errors : sum local = 1.87687e-09, global = 1.01492e-10, cumulative = -6.87095e-09
ExecutionTime = 0.148363 s  ClockTime = 0 s

Courant Number mean: 0.0162801 max: 0.0999228
Time = 0.17s

PIMPLE: Iteration 1
GAMG:  Solving for p, Initial residual = 0.000348994, Final residual = 2.62454e-07, No Iterations 4
time step continuity errors : sum local = 5.1129e-10, global = 1.30899e-10
PIMPLE: Iteration 2
GAMG:  Solving for p, Initial residual = 0.000204554, Final residual = 7.74658e-07, No Iterations 3
time step continuity errors : sum local = 1.50844e-09, global = -4.60287e-10
PIMPLE: Iteration 3
GAMG:  Solving for p, Initial residual = 4.78066e-05, Final residual = 8.21095e-07, No Iterations 2
time step continuity errors : sum local = 1.59926e-09, global = 5.01852e-11
PIMPLE: Iteration 4
GAMG:  Solving for p, Initial residual = 1.77756e-05, Final residual = 5.17159e-07, No Iterations 2
time step continuity errors : sum local = 1.0073e-09, global = 5.17199e-11
PIMPLE: Iteration 5
GAMG:  Solving for p, Initial residual = 6.85116e-06, Final residual = 8.64152e-07, No Iterations 1
time step continuity errors : sum local = 1.68318e-09, global = 1.10521e-10, cumulative = -6.76043e-09
ExecutionTime = 0.151079 s  ClockTime = 0 s

Courant Number mean: 0.0162834 max: 0.0999236
Time = 0.175s

PIMPLE: Iteration 1
GAMG:  Solving for p, Initial residual = 0.000330459, Final residual = 2.51368e-07, No Iterations 4
time step continuity errors : sum local = 4.89683e-10, global = 9.90878e-11
PIMPLE: Iteration 2
GAMG:  Solving for p, Initial residual = 0.000192685, Final residual = 7.43359e-07, No Iterations 3
time step continuity errors : sum local = 1.44751e-09, global = -4.62284e-10
PIMPLE: Iteration 3
GAMG:  Solving for p, Initial residual = 4.47436e-05, Final residual = 7.70495e-07, No Iterations 2
time step continuity errors : sum local = 1.5007e-09, global = 5.57455e-11
PIMPLE: Iteration 4
GAMG:  Solving for p, Initial residual = 1.66625e-05, Final residual = 4.7069e-07, No Iterations 2
time step continuity errors : sum local = 9.16786e-10, global = 6.84803e-11
PIMPLE: Iteration 5
GAMG:  Solving for p, Initial residual = 6.31335e-06, Final residual = 7.80537e-07, No Iterations 1
time step continuity errors : sum local = 1.5203e-09, global = 1.15022e-10, cumulative = -6.64541e-09
ExecutionTime = 0.153775 s  ClockTime = 0 s

Courant Number mean: 0.0162867 max: 0.0999243
Time = 0.18s

PIMPLE: Iteration 1
GAMG:  Solving for p, Initial residual = 0.000312225, Final residual = 2.43636e-07, No Iterations 4
time step continuity errors : sum local = 4.74614e-10, global = 7.24906e-11
PIMPLE: Iteration 2
GAMG:  Solving for p, Initial residual = 0.000181669, Final residual = 7.14877e-07, No Iterations 3
time step continuity errors : sum local = 1.39207e-09, global = -4.60369e-10
PIMPLE: Iteration 3
GAMG:  Solving for p, Initial residual = 4.18559e-05, Final residual = 7.29576e-07, No Iterations 2
time step continuity errors : sum local = 1.42101e-09, global = 6.35224e-11
PIMPLE: Iteration 4
GAMG:  Solving for p, Initial residual = 1.56638e-05, Final residual = 4.29045e-07, No Iterations 2
time step continuity errors : sum local = 8.35674e-10, global = 8.2641e-11
PIMPLE: Iteration 5
GAMG:  Solving for p, Initial residual = 5.82891e-06, Final residual = 7.06389e-07, No Iterations 1
time step continuity errors : sum local = 1.37588e-09, global = 1.19972e-10, cumulative = -6.52544e-09
ExecutionTime = 0.156455 s  ClockTime = 0 s

Courant Number mean: 0.0162898 max: 0.0999247
Time = 0.185s

PIMPLE: Iteration 1
GAMG:  Solving for p, Initial residual = 0.000295522, Final residual = 2.37667e-07, No Iterations 4
time step continuity errors : sum local = 4.62982e-10, global = 5.31798e-11
PIMPLE: Iteration 2
GAMG:  Solving for p, Initial residual = 0.000171431, Final residual = 6.9299e-07, No Iterations 3
time step continuity errors : sum local = 1.34947e-09, global = -4.56344e-10
PIMPLE: Iteration 3
GAMG:  Solving for p, Initial residual = 3.91969e-05, Final residual = 6.91582e-07, No Iterations 2
time step continuity errors : sum local = 1.34701e-09, global = 7.18583e-11
PIMPLE: Iteration 4
GAMG:  Solving for p, Initial residual = 1.47557e-05, Final residual = 3.91262e-07, No Iterations 2
time step continuity errors : sum local = 7.62084e-10, global = 9.47591e-11
PIMPLE: Iteration 5
GAMG:  Solving for p, Initial residual = 5.39291e-06, Final residual = 6.42404e-07, No Iterations 1
time step continuity errors : sum local = 1.25126e-09, global = 1.25122e-10, cumulative = -6.40032e-09
ExecutionTime = 0.159217 s  ClockTime = 0 s

Courant Number mean: 0.0162928 max: 0.0999251
Time = 0.19s

PIMPLE: Iteration 1
GAMG:  Solving for p, Initial residual = 0.000280517, Final residual = 9.92612e-07, No Iterations 3
time step continuity errors : sum local = 1.93363e-09, global = 4.83132e-10
PIMPLE: Iteration 2
GAMG:  Solving for p, Initial residual = 0.000162091, Final residual = 6.84254e-07, No Iterations 3
time step continuity errors : sum local = 1.33249e-09, global = -4.74476e-10
PIMPLE: Iteration 3
GAMG:  Solving for p, Initial residual = 3.68735e-05, Final residual = 6.50574e-07, No Iterations 2
time step continuity errors : sum local = 1.26714e-09, global = 6.05914e-11
PIMPLE: Iteration 4
GAMG:  Solving for p, Initial residual = 1.3965e-05, Final residual = 3.64702e-07, No Iterations 2
time step continuity errors : sum local = 7.10354e-10, global = 9.47945e-11
PIMPLE: Iteration 5
GAMG:  Solving for p, Initial residual = 5.009e-06, Final residual = 5.82932e-07, No Iterations 1
time step continuity errors : sum local = 1.13542e-09, global = 1.12697e-10, cumulative = -6.28762e-09
ExecutionTime = 0.161949 s  ClockTime = 0 s

Courant Number mean: 0.0162957 max: 0.0999254
Time = 0.195s

PIMPLE: Iteration 1
GAMG:  Solving for p, Initial residual = 0.000266602, Final residual = 9.45122e-07, No Iterations 3
time step continuity errors : sum local = 1.84111e-09, global = 5.10877e-10
PIMPLE: Iteration 2
GAMG:  Solving for p, Initial residual = 0.000153692, Final residual = 6.58316e-07, No Iterations 3
time step continuity errors : sum local = 1.282e-09, global = -4.56479e-10
PIMPLE: Iteration 3
GAMG:  Solving for p, Initial residual = 3.467e-05, Final residual = 6.15727e-07, No Iterations 2
time step continuity errors : sum local = 1.19928e-09, global = 6.68924e-11
PIMPLE: Iteration 4
GAMG:  Solving for p, Initial residual = 1.32016e-05, Final residual = 3.37245e-07, No Iterations 2
time step continuity errors : sum local = 6.56878e-10, global = 1.07394e-10
PIMPLE: Iteration 5
GAMG:  Solving for p, Initial residual = 4.66109e-06, Final residual = 5.36291e-07, No Iterations 1
time step continuity errors : sum local = 1.04458e-09, global = 1.20678e-10, cumulative = -6.16694e-09
ExecutionTime = 0.164632 s  ClockTime = 0 s

Courant Number mean: 0.0162984 max: 0.0999256
Time = 0.2s

PIMPLE: Iteration 1
GAMG:  Solving for p, Initial residual = 0.000253686, Final residual = 9.06755e-07, No Iterations 3
time step continuity errors : sum local = 1.76637e-09, global = 5.19667e-10
PIMPLE: Iteration 2
GAMG:  Solving for p, Initial residual = 0.000145939, Final residual = 6.33585e-07, No Iterations 3
time step continuity errors : sum local = 1.23386e-09, global = -4.3954e-10
PIMPLE: Iteration 3
GAMG:  Solving for p, Initial residual = 3.26599e-05, Final residual = 5.84699e-07, No Iterations 2
time step continuity errors : sum local = 1.13886e-09, global = 7.1831e-11
PIMPLE: Iteration 4
GAMG:  Solving for p, Initial residual = 1.25006e-05, Final residual = 3.14384e-07, No Iterations 2
time step continuity errors : sum local = 6.12355e-10, global = 1.13964e-10
PIMPLE: Iteration 5
GAMG:  Solving for p, Initial residual = 4.35228e-06, Final residual = 4.94136e-07, No Iterations 1
time step continuity errors : sum local = 9.62478e-10, global = 1.25329e-10, cumulative = -6.04161e-09
ExecutionTime = 0.167306 s  ClockTime = 0 s

volFieldValue UminMag write:
    minMag(all) of U = 0.00898609 at location (1.03411 -0.081386 -2.37561e-17) in cell 295

volFieldValue UmaxMag write:
    maxMag(all) of U = 3.78612 at location (0.106611 1.72359 0) in cell 105

volFieldValue pMin write:
    min(all) of p = -2.58808 at location (1.03199 0.427466 0) in cell 36

volFieldValue pMax write:
    max(all) of p = 252.569 at location (-4.59899 -1.37249 0) in cell 420

Courant Number mean: 0.0163011 max: 0.0999256
Time = 0.205s

PIMPLE: Iteration 1
GAMG:  Solving for p, Initial residual = 0.000242113, Final residual = 8.77189e-07, No Iterations 3
time step continuity errors : sum local = 1.70878e-09, global = 5.24853e-10
PIMPLE: Iteration 2
GAMG:  Solving for p, Initial residual = 0.000138548, Final residual = 6.1048e-07, No Iterations 3
time step continuity errors : sum local = 1.18888e-09, global = -4.23668e-10
PIMPLE: Iteration 3
GAMG:  Solving for p, Initial residual = 3.07459e-05, Final residual = 5.58065e-07, No Iterations 2
time step continuity errors : sum local = 1.08699e-09, global = 7.94629e-11
PIMPLE: Iteration 4
GAMG:  Solving for p, Initial residual = 1.18399e-05, Final residual = 2.94436e-07, No Iterations 2
time step continuity errors : sum local = 5.73505e-10, global = 1.1711e-10
PIMPLE: Iteration 5
GAMG:  Solving for p, Initial residual = 4.08104e-06, Final residual = 4.56022e-07, No Iterations 1
time step continuity errors : sum local = 8.88247e-10, global = 1.29005e-10, cumulative = -5.91261e-09
ExecutionTime = 0.170049 s  ClockTime = 0 s

Courant Number mean: 0.0163037 max: 0.0999257
Time = 0.21s

PIMPLE: Iteration 1
GAMG:  Solving for p, Initial residual = 0.000230751, Final residual = 8.39573e-07, No Iterations 3
time step continuity errors : sum local = 1.6355e-09, global = 5.16179e-10
PIMPLE: Iteration 2
GAMG:  Solving for p, Initial residual = 0.00013169, Final residual = 5.89172e-07, No Iterations 3
time step continuity errors : sum local = 1.1474e-09, global = -4.0845e-10
PIMPLE: Iteration 3
GAMG:  Solving for p, Initial residual = 2.90921e-05, Final residual = 5.32015e-07, No Iterations 2
time step continuity errors : sum local = 1.03626e-09, global = 8.21715e-11
PIMPLE: Iteration 4
GAMG:  Solving for p, Initial residual = 1.1264e-05, Final residual = 2.77077e-07, No Iterations 2
time step continuity errors : sum local = 5.39695e-10, global = 1.19067e-10
PIMPLE: Iteration 5
GAMG:  Solving for p, Initial residual = 3.84232e-06, Final residual = 4.22698e-07, No Iterations 1
time step continuity errors : sum local = 8.23338e-10, global = 1.30817e-10, cumulative = -5.78179e-09
ExecutionTime = 0.172719 s  ClockTime = 0 s

Courant Number mean: 0.0163062 max: 0.0999256
Time = 0.215s

PIMPLE: Iteration 1
GAMG:  Solving for p, Initial residual = 0.000219506, Final residual = 7.96661e-07, No Iterations 3
time step continuity errors : sum local = 1.55189e-09, global = 5.02841e-10
PIMPLE: Iteration 2
GAMG:  Solving for p, Initial residual = 0.000125026, Final residual = 5.76812e-07, No Iterations 3
time step continuity errors : sum local = 1.12331e-09, global = -3.95468e-10
PIMPLE: Iteration 3
GAMG:  Solving for p, Initial residual = 2.76743e-05, Final residual = 5.0853e-07, No Iterations 2
time step continuity errors : sum local = 9.90497e-10, global = 8.78913e-11
PIMPLE: Iteration 4
GAMG:  Solving for p, Initial residual = 1.083e-05, Final residual = 2.60946e-07, No Iterations 2
time step continuity errors : sum local = 5.08267e-10, global = 1.19038e-10
PIMPLE: Iteration 5
GAMG:  Solving for p, Initial residual = 3.66046e-06, Final residual = 3.98893e-07, No Iterations 1
time step continuity errors : sum local = 7.76958e-10, global = 1.31046e-10, cumulative = -5.65075e-09
ExecutionTime = 0.175457 s  ClockTime = 0 s

Courant Number mean: 0.0163086 max: 0.0999256
Time = 0.22s

PIMPLE: Iteration 1
GAMG:  Solving for p, Initial residual = 0.000206623, Final residual = 7.88555e-07, No Iterations 3
time step continuity errors : sum local = 1.53607e-09, global = 4.98401e-10
PIMPLE: Iteration 2
GAMG:  Solving for p, Initial residual = 0.000119294, Final residual = 5.51359e-07, No Iterations 3
time step continuity errors : sum local = 1.07375e-09, global = -3.809e-10
PIMPLE: Iteration 3
GAMG:  Solving for p, Initial residual = 2.61484e-05, Final residual = 4.87194e-07, No Iterations 2
time step continuity errors : sum local = 9.48936e-10, global = 8.80015e-11
PIMPLE: Iteration 4
GAMG:  Solving for p, Initial residual = 1.03653e-05, Final residual = 9.62966e-07, No Iterations 1
time step continuity errors : sum local = 1.87564e-09, global = 1.01458e-10
PIMPLE: Iteration 5
GAMG:  Solving for p, Initial residual = 3.63756e-06, Final residual = 5.5559e-07, No Iterations 1
time step continuity errors : sum local = 1.08216e-09, global = 1.97084e-10, cumulative = -5.45366e-09
ExecutionTime = 0.178164 s  ClockTime = 0 s

Courant Number mean: 0.0163109 max: 0.0999254
Time = 0.225s

PIMPLE: Iteration 1
GAMG:  Solving for p, Initial residual = 0.000197375, Final residual = 7.74967e-07, No Iterations 3
time step continuity errors : sum local = 1.50959e-09, global = 4.9151e-10
PIMPLE: Iteration 2
GAMG:  Solving for p, Initial residual = 0.000114015, Final residual = 5.29997e-07, No Iterations 3
time step continuity errors : sum local = 1.03215e-09, global = -3.67748e-10
PIMPLE: Iteration 3
GAMG:  Solving for p, Initial residual = 2.47857e-05, Final residual = 4.6408e-07, No Iterations 2
time step continuity errors : sum local = 9.03912e-10, global = 9.04737e-11
PIMPLE: Iteration 4
GAMG:  Solving for p, Initial residual = 9.88817e-06, Final residual = 9.10795e-07, No Iterations 1
time step continuity errors : sum local = 1.77402e-09, global = 9.24764e-11
PIMPLE: Iteration 5
GAMG:  Solving for p, Initial residual = 3.42214e-06, Final residual = 5.19821e-07, No Iterations 1
time step continuity errors : sum local = 1.01249e-09, global = 1.87913e-10, cumulative = -5.26575e-09
ExecutionTime = 0.180836 s  ClockTime = 0 s

Courant Number mean: 0.0163132 max: 0.0999253
Time = 0.23s

PIMPLE: Iteration 1
GAMG:  Solving for p, Initial residual = 0.000188781, Final residual = 7.60498e-07, No Iterations 3
time step continuity errors : sum local = 1.4814e-09, global = 4.80622e-10
PIMPLE: Iteration 2
GAMG:  Solving for p, Initial residual = 0.000108968, Final residual = 5.10014e-07, No Iterations 3
time step continuity errors : sum local = 9.93238e-10, global = -3.55233e-10
PIMPLE: Iteration 3
GAMG:  Solving for p, Initial residual = 2.35507e-05, Final residual = 4.41328e-07, No Iterations 2
time step continuity errors : sum local = 8.59599e-10, global = 9.05298e-11
PIMPLE: Iteration 4
GAMG:  Solving for p, Initial residual = 9.44261e-06, Final residual = 8.67705e-07, No Iterations 1
time step continuity errors : sum local = 1.69009e-09, global = 8.44915e-11
PIMPLE: Iteration 5
GAMG:  Solving for p, Initial residual = 3.23257e-06, Final residual = 4.89856e-07, No Iterations 1
time step continuity errors : sum local = 9.54128e-10, global = 1.7893e-10, cumulative = -5.08682e-09
ExecutionTime = 0.183502 s  ClockTime = 0 s

Courant Number mean: 0.0163154 max: 0.0999251
Time = 0.235s

PIMPLE: Iteration 1
GAMG:  Solving for p, Initial residual = 0.000181144, Final residual = 7.46031e-07, No Iterations 3
time step continuity errors : sum local = 1.45321e-09, global = 4.69353e-10
PIMPLE: Iteration 2
GAMG:  Solving for p, Initial residual = 0.000104188, Final residual = 4.91636e-07, No Iterations 3
time step continuity errors : sum local = 9.57454e-10, global = -3.43362e-10
PIMPLE: Iteration 3
GAMG:  Solving for p, Initial residual = 2.24053e-05, Final residual = 4.20215e-07, No Iterations 2
time step continuity errors : sum local = 8.18478e-10, global = 9.11781e-11
PIMPLE: Iteration 4
GAMG:  Solving for p, Initial residual = 9.02273e-06, Final residual = 8.2971e-07, No Iterations 1
time step continuity errors : sum local = 1.61609e-09, global = 7.71812e-11
PIMPLE: Iteration 5
GAMG:  Solving for p, Initial residual = 3.05847e-06, Final residual = 4.62022e-07, No Iterations 1
time step continuity errors : sum local = 8.99915e-10, global = 1.70256e-10, cumulative = -4.91656e-09
ExecutionTime = 0.186147 s  ClockTime = 0 s

Courant Number mean: 0.0163175 max: 0.0999249
Time = 0.24s

PIMPLE: Iteration 1
GAMG:  Solving for p, Initial residual = 0.000174219, Final residual = 7.32229e-07, No Iterations 3
time step continuity errors : sum local = 1.42632e-09, global = 4.58078e-10
PIMPLE: Iteration 2
GAMG:  Solving for p, Initial residual = 9.96781e-05, Final residual = 4.74833e-07, No Iterations 3
time step continuity errors : sum local = 9.24735e-10, global = -3.32136e-10
PIMPLE: Iteration 3
GAMG:  Solving for p, Initial residual = 2.13589e-05, Final residual = 4.00904e-07, No Iterations 2
time step continuity errors : sum local = 7.80866e-10, global = 9.1714e-11
PIMPLE: Iteration 4
GAMG:  Solving for p, Initial residual = 8.63253e-06, Final residual = 7.96826e-07, No Iterations 1
time step continuity errors : sum local = 1.55204e-09, global = 7.07064e-11
PIMPLE: Iteration 5
GAMG:  Solving for p, Initial residual = 2.90163e-06, Final residual = 4.36058e-07, No Iterations 1
time step continuity errors : sum local = 8.49345e-10, global = 1.62069e-10, cumulative = -4.75449e-09
ExecutionTime = 0.188783 s  ClockTime = 0 s

Courant Number mean: 0.0163196 max: 0.0999246
Time = 0.245s

PIMPLE: Iteration 1
GAMG:  Solving for p, Initial residual = 0.000167875, Final residual = 7.18953e-07, No Iterations 3
time step continuity errors : sum local = 1.40046e-09, global = 4.46809e-10
PIMPLE: Iteration 2
GAMG:  Solving for p, Initial residual = 9.54687e-05, Final residual = 4.58771e-07, No Iterations 3
time step continuity errors : sum local = 8.9346e-10, global = -3.21448e-10
PIMPLE: Iteration 3
GAMG:  Solving for p, Initial residual = 2.03776e-05, Final residual = 3.82438e-07, No Iterations 2
time step continuity errors : sum local = 7.449e-10, global = 9.19564e-11
PIMPLE: Iteration 4
GAMG:  Solving for p, Initial residual = 8.26533e-06, Final residual = 7.65848e-07, No Iterations 1
time step continuity errors : sum local = 1.4917e-09, global = 6.45273e-11
PIMPLE: Iteration 5
GAMG:  Solving for p, Initial residual = 2.75895e-06, Final residual = 4.12025e-07, No Iterations 1
time step continuity errors : sum local = 8.02533e-10, global = 1.54083e-10, cumulative = -4.60041e-09
ExecutionTime = 0.191468 s  ClockTime = 0 s

Courant Number mean: 0.0163216 max: 0.0999244
Time = 0.25s

PIMPLE: Iteration 1
GAMG:  Solving for p, Initial residual = 0.000159923, Final residual = 6.98368e-07, No Iterations 3
time step continuity errors : sum local = 1.36035e-09, global = 4.28946e-10
PIMPLE: Iteration 2
GAMG:  Solving for p, Initial residual = 9.15715e-05, Final residual = 4.43675e-07, No Iterations 3
time step continuity errors : sum local = 8.64062e-10, global = -3.11304e-10
PIMPLE: Iteration 3
GAMG:  Solving for p, Initial residual = 1.94717e-05, Final residual = 3.64751e-07, No Iterations 2
time step continuity errors : sum local = 7.1045e-10, global = 9.21417e-11
PIMPLE: Iteration 4
GAMG:  Solving for p, Initial residual = 7.91921e-06, Final residual = 7.3633e-07, No Iterations 1
time step continuity errors : sum local = 1.43421e-09, global = 5.89206e-11
PIMPLE: Iteration 5
GAMG:  Solving for p, Initial residual = 2.62736e-06, Final residual = 3.89656e-07, No Iterations 1
time step continuity errors : sum local = 7.58963e-10, global = 1.46587e-10, cumulative = -4.45382e-09
ExecutionTime = 0.194239 s  ClockTime = 0 s

volFieldValue UminMag write:
    minMag(all) of U = 0.0098135 at location (1.03411 -0.081386 -2.37561e-17) in cell 295

volFieldValue UmaxMag write:
    maxMag(all) of U = 3.78609 at location (0.106611 1.72359 0) in cell 105

volFieldValue pMin write:
    min(all) of p = -2.74094 at location (1.03199 0.427466 0) in cell 36

volFieldValue pMax write:
    max(all) of p = 252.425 at location (-4.59899 -1.37249 0) in cell 420

Courant Number mean: 0.0163235 max: 0.0999241
Time = 0.255s

PIMPLE: Iteration 1
GAMG:  Solving for p, Initial residual = 0.000153941, Final residual = 6.82469e-07, No Iterations 3
time step continuity errors : sum local = 1.32938e-09, global = 4.14753e-10
PIMPLE: Iteration 2
GAMG:  Solving for p, Initial residual = 8.79036e-05, Final residual = 4.29046e-07, No Iterations 3
time step continuity errors : sum local = 8.35575e-10, global = -3.01491e-10
PIMPLE: Iteration 3
GAMG:  Solving for p, Initial residual = 1.86297e-05, Final residual = 3.47581e-07, No Iterations 2
time step continuity errors : sum local = 6.77005e-10, global = 9.19168e-11
PIMPLE: Iteration 4
GAMG:  Solving for p, Initial residual = 7.59368e-06, Final residual = 7.07622e-07, No Iterations 1
time step continuity errors : sum local = 1.37829e-09, global = 5.35531e-11
PIMPLE: Iteration 5
GAMG:  Solving for p, Initial residual = 2.50421e-06, Final residual = 3.68637e-07, No Iterations 1
time step continuity errors : sum local = 7.18023e-10, global = 1.39394e-10, cumulative = -4.31443e-09
ExecutionTime = 0.196964 s  ClockTime = 0 s

Courant Number mean: 0.0163254 max: 0.0999238
Time = 0.26s

PIMPLE: Iteration 1
GAMG:  Solving for p, Initial residual = 0.000149442, Final residual = 6.66544e-07, No Iterations 3
time step continuity errors : sum local = 1.29835e-09, global = 4.00441e-10
PIMPLE: Iteration 2
GAMG:  Solving for p, Initial residual = 8.44448e-05, Final residual = 4.1508e-07, No Iterations 3
time step continuity errors : sum local = 8.08376e-10, global = -2.92022e-10
PIMPLE: Iteration 3
GAMG:  Solving for p, Initial residual = 1.78466e-05, Final residual = 3.31166e-07, No Iterations 2
time step continuity errors : sum local = 6.45031e-10, global = 9.15041e-11
PIMPLE: Iteration 4
GAMG:  Solving for p, Initial residual = 7.28619e-06, Final residual = 6.80159e-07, No Iterations 1
time step continuity errors : sum local = 1.32479e-09, global = 4.86064e-11
PIMPLE: Iteration 5
GAMG:  Solving for p, Initial residual = 2.38924e-06, Final residual = 3.48388e-07, No Iterations 1
time step continuity errors : sum local = 6.78579e-10, global = 1.32675e-10, cumulative = -4.18175e-09
ExecutionTime = 0.199609 s  ClockTime = 0 s

Courant Number mean: 0.0163273 max: 0.0999235
Time = 0.265s

PIMPLE: Iteration 1
GAMG:  Solving for p, Initial residual = 0.000145104, Final residual = 6.44343e-07, No Iterations 3
time step continuity errors : sum local = 1.25509e-09, global = 3.82253e-10
PIMPLE: Iteration 2
GAMG:  Solving for p, Initial residual = 8.12953e-05, Final residual = 4.01922e-07, No Iterations 3
time step continuity errors : sum local = 7.82747e-10, global = -2.83419e-10
PIMPLE: Iteration 3
GAMG:  Solving for p, Initial residual = 1.71088e-05, Final residual = 3.15567e-07, No Iterations 2
time step continuity errors : sum local = 6.14643e-10, global = 9.12796e-11
PIMPLE: Iteration 4
GAMG:  Solving for p, Initial residual = 6.99818e-06, Final residual = 6.53917e-07, No Iterations 1
time step continuity errors : sum local = 1.27367e-09, global = 4.40713e-11
PIMPLE: Iteration 5
GAMG:  Solving for p, Initial residual = 2.2829e-06, Final residual = 3.29282e-07, No Iterations 1
time step continuity errors : sum local = 6.41359e-10, global = 1.26509e-10, cumulative = -4.05524e-09
ExecutionTime = 0.202244 s  ClockTime = 0 s

Courant Number mean: 0.0163291 max: 0.0999232
Time = 0.27s

PIMPLE: Iteration 1
GAMG:  Solving for p, Initial residual = 0.000138864, Final residual = 6.36195e-07, No Iterations 3
time step continuity errors : sum local = 1.23921e-09, global = 3.73309e-10
PIMPLE: Iteration 2
GAMG:  Solving for p, Initial residual = 7.81815e-05, Final residual = 3.89661e-07, No Iterations 3
time step continuity errors : sum local = 7.58867e-10, global = -2.75075e-10
PIMPLE: Iteration 3
GAMG:  Solving for p, Initial residual = 1.64106e-05, Final residual = 3.00885e-07, No Iterations 2
time step continuity errors : sum local = 5.86043e-10, global = 9.04079e-11
PIMPLE: Iteration 4
GAMG:  Solving for p, Initial residual = 6.72458e-06, Final residual = 6.27786e-07, No Iterations 1
time step continuity errors : sum local = 1.22276e-09, global = 3.97666e-11
PIMPLE: Iteration 5
GAMG:  Solving for p, Initial residual = 2.18102e-06, Final residual = 3.10627e-07, No Iterations 1
time step continuity errors : sum local = 6.0502e-10, global = 1.20484e-10, cumulative = -3.93476e-09
ExecutionTime = 0.204906 s  ClockTime = 0 s

Courant Number mean: 0.0163309 max: 0.0999229
Time = 0.275s

PIMPLE: Iteration 1
GAMG:  Solving for p, Initial residual = 0.000132598, Final residual = 6.1663e-07, No Iterations 3
time step continuity errors : sum local = 1.20109e-09, global = 3.56055e-10
PIMPLE: Iteration 2
GAMG:  Solving for p, Initial residual = 7.53195e-05, Final residual = 3.77739e-07, No Iterations 3
time step continuity errors : sum local = 7.35646e-10, global = -2.67145e-10
PIMPLE: Iteration 3
GAMG:  Solving for p, Initial residual = 1.57555e-05, Final residual = 2.872e-07, No Iterations 2
time step continuity errors : sum local = 5.59383e-10, global = 8.93182e-11
PIMPLE: Iteration 4
GAMG:  Solving for p, Initial residual = 6.47001e-06, Final residual = 6.03128e-07, No Iterations 1
time step continuity errors : sum local = 1.17473e-09, global = 3.55377e-11
PIMPLE: Iteration 5
GAMG:  Solving for p, Initial residual = 2.08696e-06, Final residual = 2.93259e-07, No Iterations 1
time step continuity errors : sum local = 5.71187e-10, global = 1.14978e-10, cumulative = -3.81978e-09
ExecutionTime = 0.20756 s  ClockTime = 0 s

Courant Number mean: 0.0163326 max: 0.0999226
Time = 0.28s

PIMPLE: Iteration 1
GAMG:  Solving for p, Initial residual = 0.000126716, Final residual = 6.00687e-07, No Iterations 3
time step continuity errors : sum local = 1.17002e-09, global = 3.41319e-10
PIMPLE: Iteration 2
GAMG:  Solving for p, Initial residual = 7.25669e-05, Final residual = 3.66189e-07, No Iterations 3
time step continuity errors : sum local = 7.13151e-10, global = -2.59265e-10
PIMPLE: Iteration 3
GAMG:  Solving for p, Initial residual = 1.51431e-05, Final residual = 2.74635e-07, No Iterations 2
time step continuity errors : sum local = 5.34907e-10, global = 8.82216e-11
PIMPLE: Iteration 4
GAMG:  Solving for p, Initial residual = 6.22917e-06, Final residual = 5.7932e-07, No Iterations 1
time step continuity errors : sum local = 1.12835e-09, global = 3.16877e-11
PIMPLE: Iteration 5
GAMG:  Solving for p, Initial residual = 1.99771e-06, Final residual = 2.77168e-07, No Iterations 1
time step continuity errors : sum local = 5.39842e-10, global = 1.09802e-10, cumulative = -3.70998e-09
ExecutionTime = 0.210266 s  ClockTime = 0 s

Courant Number mean: 0.0163343 max: 0.0999223
Time = 0.285s

PIMPLE: Iteration 1
GAMG:  Solving for p, Initial residual = 0.000121527, Final residual = 5.8754e-07, No Iterations 3
time step continuity errors : sum local = 1.1444e-09, global = 3.29249e-10
PIMPLE: Iteration 2
GAMG:  Solving for p, Initial residual = 6.99875e-05, Final residual = 3.55026e-07, No Iterations 3
time step continuity errors : sum local = 6.91408e-10, global = -2.51699e-10
PIMPLE: Iteration 3
GAMG:  Solving for p, Initial residual = 1.45662e-05, Final residual = 2.62562e-07, No Iterations 2
time step continuity errors : sum local = 5.11389e-10, global = 8.68423e-11
PIMPLE: Iteration 4
GAMG:  Solving for p, Initial residual = 5.99964e-06, Final residual = 5.56508e-07, No Iterations 1
time step continuity errors : sum local = 1.08391e-09, global = 2.80557e-11
PIMPLE: Iteration 5
GAMG:  Solving for p, Initial residual = 1.91373e-06, Final residual = 2.63437e-07, No Iterations 1
time step continuity errors : sum local = 5.13094e-10, global = 1.04976e-10, cumulative = -3.605e-09
ExecutionTime = 0.212936 s  ClockTime = 0 s

Courant Number mean: 0.016336 max: 0.0999219
Time = 0.29s

PIMPLE: Iteration 1
GAMG:  Solving for p, Initial residual = 0.000117003, Final residual = 5.74345e-07, No Iterations 3
time step continuity errors : sum local = 1.11869e-09, global = 3.17397e-10
PIMPLE: Iteration 2
GAMG:  Solving for p, Initial residual = 6.75633e-05, Final residual = 3.44361e-07, No Iterations 3
time step continuity errors : sum local = 6.70633e-10, global = -2.4447e-10
PIMPLE: Iteration 3
GAMG:  Solving for p, Initial residual = 1.40208e-05, Final residual = 2.51343e-07, No Iterations 2
time step continuity errors : sum local = 4.89532e-10, global = 8.53494e-11
PIMPLE: Iteration 4
GAMG:  Solving for p, Initial residual = 5.7896e-06, Final residual = 5.34972e-07, No Iterations 1
time step continuity errors : sum local = 1.04195e-09, global = 2.46518e-11
PIMPLE: Iteration 5
GAMG:  Solving for p, Initial residual = 1.83496e-06, Final residual = 2.50611e-07, No Iterations 1
time step continuity errors : sum local = 4.88109e-10, global = 1.00464e-10, cumulative = -3.50454e-09
ExecutionTime = 0.215597 s  ClockTime = 0 s

Courant Number mean: 0.0163376 max: 0.0999216
Time = 0.295s

PIMPLE: Iteration 1
GAMG:  Solving for p, Initial residual = 0.000112819, Final residual = 5.60542e-07, No Iterations 3
time step continuity errors : sum local = 1.09179e-09, global = 3.05197e-10
PIMPLE: Iteration 2
GAMG:  Solving for p, Initial residual = 6.52578e-05, Final residual = 3.34138e-07, No Iterations 3
time step continuity errors : sum local = 6.5072e-10, global = -2.37536e-10
PIMPLE: Iteration 3
GAMG:  Solving for p, Initial residual = 1.35086e-05, Final residual = 2.4119e-07, No Iterations 2
time step continuity errors : sum local = 4.69754e-10, global = 8.37566e-11
PIMPLE: Iteration 4
GAMG:  Solving for p, Initial residual = 5.60004e-06, Final residual = 5.16109e-07, No Iterations 1
time step continuity errors : sum local = 1.0052e-09, global = 2.14541e-11
PIMPLE: Iteration 5
GAMG:  Solving for p, Initial residual = 1.76295e-06, Final residual = 2.38578e-07, No Iterations 1
time step continuity errors : sum local = 4.64668e-10, global = 9.62268e-11, cumulative = -3.40831e-09
ExecutionTime = 0.218247 s  ClockTime = 0 s

Courant Number mean: 0.0163391 max: 0.0999213
Time = 0.3s

PIMPLE: Iteration 1
GAMG:  Solving for p, Initial residual = 0.000108807, Final residual = 5.47063e-07, No Iterations 3
time step continuity errors : sum local = 1.06552e-09, global = 2.9326e-10
PIMPLE: Iteration 2
GAMG:  Solving for p, Initial residual = 6.30998e-05, Final residual = 3.24338e-07, No Iterations 3
time step continuity errors : sum local = 6.31631e-10, global = -2.30872e-10
PIMPLE: Iteration 3
GAMG:  Solving for p, Initial residual = 1.30224e-05, Final residual = 9.78894e-07, No Iterations 1
time step continuity errors : sum local = 1.90652e-09, global = -6.69298e-12
PIMPLE: Iteration 4
GAMG:  Solving for p, Initial residual = 5.41426e-06, Final residual = 6.78453e-07, No Iterations 1
time step continuity errors : sum local = 1.32138e-09, global = 4.50316e-11
PIMPLE: Iteration 5
GAMG:  Solving for p, Initial residual = 1.86012e-06, Final residual = 2.61872e-07, No Iterations 1
time step continuity errors : sum local = 5.10032e-10, global = 1.18184e-10, cumulative = -3.29013e-09
ExecutionTime = 0.220872 s  ClockTime = 0 s

volFieldValue UminMag write:
    minMag(all) of U = 0.0102464 at location (1.03411 -0.081386 -2.37561e-17) in cell 295

volFieldValue UmaxMag write:
    maxMag(all) of U = 3.78605 at location (0.106611 1.72359 0) in cell 105

volFieldValue pMin write:
    min(all) of p = -2.82075 at location (1.03199 0.427466 0) in cell 36

volFieldValue pMax write:
    max(all) of p = 252.351 at location (-4.59899 -1.37249 0) in cell 420

Courant Number mean: 0.0163407 max: 0.099921
Time = 0.305s

PIMPLE: Iteration 1
GAMG:  Solving for p, Initial residual = 0.000105079, Final residual = 5.33331e-07, No Iterations 3
time step continuity errors : sum local = 1.03877e-09, global = 2.85283e-10
PIMPLE: Iteration 2
GAMG:  Solving for p, Initial residual = 6.10521e-05, Final residual = 3.14482e-07, No Iterations 3
time step continuity errors : sum local = 6.12431e-10, global = -2.2445e-10
PIMPLE: Iteration 3
GAMG:  Solving for p, Initial residual = 1.2559e-05, Final residual = 9.44271e-07, No Iterations 1
time step continuity errors : sum local = 1.83907e-09, global = -5.14819e-12
PIMPLE: Iteration 4
GAMG:  Solving for p, Initial residual = 5.2302e-06, Final residual = 6.55048e-07, No Iterations 1
time step continuity errors : sum local = 1.27578e-09, global = 3.85373e-11
PIMPLE: Iteration 5
GAMG:  Solving for p, Initial residual = 1.79199e-06, Final residual = 2.51369e-07, No Iterations 1
time step continuity errors : sum local = 4.89571e-10, global = 1.12418e-10, cumulative = -3.17771e-09
ExecutionTime = 0.223552 s  ClockTime = 0 s

Courant Number mean: 0.0163422 max: 0.0999206
Time = 0.31s

PIMPLE: Iteration 1
GAMG:  Solving for p, Initial residual = 0.000101492, Final residual = 5.21151e-07, No Iterations 3
time step continuity errors : sum local = 1.01503e-09, global = 2.72828e-10
PIMPLE: Iteration 2
GAMG:  Solving for p, Initial residual = 5.91062e-05, Final residual = 3.05263e-07, No Iterations 3
time step continuity errors : sum local = 5.94473e-10, global = -2.18238e-10
PIMPLE: Iteration 3
GAMG:  Solving for p, Initial residual = 1.21206e-05, Final residual = 9.10485e-07, No Iterations 1
time step continuity errors : sum local = 1.77325e-09, global = -1.69977e-12
PIMPLE: Iteration 4
GAMG:  Solving for p, Initial residual = 5.06285e-06, Final residual = 6.31655e-07, No Iterations 1
time step continuity errors : sum local = 1.23021e-09, global = 3.62752e-11
PIMPLE: Iteration 5
GAMG:  Solving for p, Initial residual = 1.7259e-06, Final residual = 2.412e-07, No Iterations 1
[...]
    discarding empty/nonConformal/processor patch 5 defaultFaces
    Patch     : "/home/kalel1938/Documents/codex_projects/adaptive_model_reduction/cases/low/VTK/left/left_181.vtk"
    Patch     : "/home/kalel1938/Documents/codex_projects/adaptive_model_reduction/cases/low/VTK/right/right_181.vtk"
    Patch     : "/home/kalel1938/Documents/codex_projects/adaptive_model_reduction/cases/low/VTK/down/down_181.vtk"
    Patch     : "/home/kalel1938/Documents/codex_projects/adaptive_model_reduction/cases/low/VTK/up/up_181.vtk"
    Patch     : "/home/kalel1938/Documents/codex_projects/adaptive_model_reduction/cases/low/VTK/cylinder/cylinder_181.vtk"
Time: 0.91
    volScalarFields            : p
    volVectorFields            : U

    Internal  : "/home/kalel1938/Documents/codex_projects/adaptive_model_reduction/cases/low/VTK/low_182.vtk"
Combining patches:
    patch 0 left
    patch 1 right
    patch 2 down
    patch 3 up
    patch 4 cylinder
    discarding empty/nonConformal/processor patch 5 defaultFaces
    Patch     : "/home/kalel1938/Documents/codex_projects/adaptive_model_reduction/cases/low/VTK/left/left_182.vtk"
    Patch     : "/home/kalel1938/Documents/codex_projects/adaptive_model_reduction/cases/low/VTK/right/right_182.vtk"
    Patch     : "/home/kalel1938/Documents/codex_projects/adaptive_model_reduction/cases/low/VTK/down/down_182.vtk"
    Patch     : "/home/kalel1938/Documents/codex_projects/adaptive_model_reduction/cases/low/VTK/up/up_182.vtk"
    Patch     : "/home/kalel1938/Documents/codex_projects/adaptive_model_reduction/cases/low/VTK/cylinder/cylinder_182.vtk"
Time: 0.915
    volScalarFields            : p
    volVectorFields            : U

    Internal  : "/home/kalel1938/Documents/codex_projects/adaptive_model_reduction/cases/low/VTK/low_183.vtk"
Combining patches:
    patch 0 left
    patch 1 right
    patch 2 down
    patch 3 up
    patch 4 cylinder
    discarding empty/nonConformal/processor patch 5 defaultFaces
    Patch     : "/home/kalel1938/Documents/codex_projects/adaptive_model_reduction/cases/low/VTK/left/left_183.vtk"
    Patch     : "/home/kalel1938/Documents/codex_projects/adaptive_model_reduction/cases/low/VTK/right/right_183.vtk"
    Patch     : "/home/kalel1938/Documents/codex_projects/adaptive_model_reduction/cases/low/VTK/down/down_183.vtk"
    Patch     : "/home/kalel1938/Documents/codex_projects/adaptive_model_reduction/cases/low/VTK/up/up_183.vtk"
    Patch     : "/home/kalel1938/Documents/codex_projects/adaptive_model_reduction/cases/low/VTK/cylinder/cylinder_183.vtk"
Time: 0.92
    volScalarFields            : p
    volVectorFields            : U

    Internal  : "/home/kalel1938/Documents/codex_projects/adaptive_model_reduction/cases/low/VTK/low_184.vtk"
Combining patches:
    patch 0 left
    patch 1 right
    patch 2 down
    patch 3 up
    patch 4 cylinder
    discarding empty/nonConformal/processor patch 5 defaultFaces
    Patch     : "/home/kalel1938/Documents/codex_projects/adaptive_model_reduction/cases/low/VTK/left/left_184.vtk"
    Patch     : "/home/kalel1938/Documents/codex_projects/adaptive_model_reduction/cases/low/VTK/right/right_184.vtk"
    Patch     : "/home/kalel1938/Documents/codex_projects/adaptive_model_reduction/cases/low/VTK/down/down_184.vtk"
    Patch     : "/home/kalel1938/Documents/codex_projects/adaptive_model_reduction/cases/low/VTK/up/up_184.vtk"
    Patch     : "/home/kalel1938/Documents/codex_projects/adaptive_model_reduction/cases/low/VTK/cylinder/cylinder_184.vtk"
Time: 0.925
    volScalarFields            : p
    volVectorFields            : U

    Internal  : "/home/kalel1938/Documents/codex_projects/adaptive_model_reduction/cases/low/VTK/low_185.vtk"
Combining patches:
    patch 0 left
    patch 1 right
    patch 2 down
    patch 3 up
    patch 4 cylinder
    discarding empty/nonConformal/processor patch 5 defaultFaces
    Patch     : "/home/kalel1938/Documents/codex_projects/adaptive_model_reduction/cases/low/VTK/left/left_185.vtk"
    Patch     : "/home/kalel1938/Documents/codex_projects/adaptive_model_reduction/cases/low/VTK/right/right_185.vtk"
    Patch     : "/home/kalel1938/Documents/codex_projects/adaptive_model_reduction/cases/low/VTK/down/down_185.vtk"
    Patch     : "/home/kalel1938/Documents/codex_projects/adaptive_model_reduction/cases/low/VTK/up/up_185.vtk"
    Patch     : "/home/kalel1938/Documents/codex_projects/adaptive_model_reduction/cases/low/VTK/cylinder/cylinder_185.vtk"
Time: 0.93
    volScalarFields            : p
    volVectorFields            : U

    Internal  : "/home/kalel1938/Documents/codex_projects/adaptive_model_reduction/cases/low/VTK/low_186.vtk"
Combining patches:
    patch 0 left
    patch 1 right
    patch 2 down
    patch 3 up
    patch 4 cylinder
    discarding empty/nonConformal/processor patch 5 defaultFaces
    Patch     : "/home/kalel1938/Documents/codex_projects/adaptive_model_reduction/cases/low/VTK/left/left_186.vtk"
    Patch     : "/home/kalel1938/Documents/codex_projects/adaptive_model_reduction/cases/low/VTK/right/right_186.vtk"
    Patch     : "/home/kalel1938/Documents/codex_projects/adaptive_model_reduction/cases/low/VTK/down/down_186.vtk"
    Patch     : "/home/kalel1938/Documents/codex_projects/adaptive_model_reduction/cases/low/VTK/up/up_186.vtk"
    Patch     : "/home/kalel1938/Documents/codex_projects/adaptive_model_reduction/cases/low/VTK/cylinder/cylinder_186.vtk"
Time: 0.935
    volScalarFields            : p
    volVectorFields            : U

    Internal  : "/home/kalel1938/Documents/codex_projects/adaptive_model_reduction/cases/low/VTK/low_187.vtk"
Combining patches:
    patch 0 left
    patch 1 right
    patch 2 down
    patch 3 up
    patch 4 cylinder
    discarding empty/nonConformal/processor patch 5 defaultFaces
    Patch     : "/home/kalel1938/Documents/codex_projects/adaptive_model_reduction/cases/low/VTK/left/left_187.vtk"
    Patch     : "/home/kalel1938/Documents/codex_projects/adaptive_model_reduction/cases/low/VTK/right/right_187.vtk"
    Patch     : "/home/kalel1938/Documents/codex_projects/adaptive_model_reduction/cases/low/VTK/down/down_187.vtk"
    Patch     : "/home/kalel1938/Documents/codex_projects/adaptive_model_reduction/cases/low/VTK/up/up_187.vtk"
    Patch     : "/home/kalel1938/Documents/codex_projects/adaptive_model_reduction/cases/low/VTK/cylinder/cylinder_187.vtk"
Time: 0.94
    volScalarFields            : p
    volVectorFields            : U

    Internal  : "/home/kalel1938/Documents/codex_projects/adaptive_model_reduction/cases/low/VTK/low_188.vtk"
Combining patches:
    patch 0 left
    patch 1 right
    patch 2 down
    patch 3 up
    patch 4 cylinder
    discarding empty/nonConformal/processor patch 5 defaultFaces
    Patch     : "/home/kalel1938/Documents/codex_projects/adaptive_model_reduction/cases/low/VTK/left/left_188.vtk"
    Patch     : "/home/kalel1938/Documents/codex_projects/adaptive_model_reduction/cases/low/VTK/right/right_188.vtk"
    Patch     : "/home/kalel1938/Documents/codex_projects/adaptive_model_reduction/cases/low/VTK/down/down_188.vtk"
    Patch     : "/home/kalel1938/Documents/codex_projects/adaptive_model_reduction/cases/low/VTK/up/up_188.vtk"
    Patch     : "/home/kalel1938/Documents/codex_projects/adaptive_model_reduction/cases/low/VTK/cylinder/cylinder_188.vtk"
Time: 0.945
    volScalarFields            : p
    volVectorFields            : U

    Internal  : "/home/kalel1938/Documents/codex_projects/adaptive_model_reduction/cases/low/VTK/low_189.vtk"
Combining patches:
    patch 0 left
    patch 1 right
    patch 2 down
    patch 3 up
    patch 4 cylinder
    discarding empty/nonConformal/processor patch 5 defaultFaces
    Patch     : "/home/kalel1938/Documents/codex_projects/adaptive_model_reduction/cases/low/VTK/left/left_189.vtk"
    Patch     : "/home/kalel1938/Documents/codex_projects/adaptive_model_reduction/cases/low/VTK/right/right_189.vtk"
    Patch     : "/home/kalel1938/Documents/codex_projects/adaptive_model_reduction/cases/low/VTK/down/down_189.vtk"
    Patch     : "/home/kalel1938/Documents/codex_projects/adaptive_model_reduction/cases/low/VTK/up/up_189.vtk"
    Patch     : "/home/kalel1938/Documents/codex_projects/adaptive_model_reduction/cases/low/VTK/cylinder/cylinder_189.vtk"
Time: 0.95
    volScalarFields            : p
    volVectorFields            : U

    Internal  : "/home/kalel1938/Documents/codex_projects/adaptive_model_reduction/cases/low/VTK/low_190.vtk"
Combining patches:
    patch 0 left
    patch 1 right
    patch 2 down
    patch 3 up
    patch 4 cylinder
    discarding empty/nonConformal/processor patch 5 defaultFaces
    Patch     : "/home/kalel1938/Documents/codex_projects/adaptive_model_reduction/cases/low/VTK/left/left_190.vtk"
    Patch     : "/home/kalel1938/Documents/codex_projects/adaptive_model_reduction/cases/low/VTK/right/right_190.vtk"
    Patch     : "/home/kalel1938/Documents/codex_projects/adaptive_model_reduction/cases/low/VTK/down/down_190.vtk"
    Patch     : "/home/kalel1938/Documents/codex_projects/adaptive_model_reduction/cases/low/VTK/up/up_190.vtk"
    Patch     : "/home/kalel1938/Documents/codex_projects/adaptive_model_reduction/cases/low/VTK/cylinder/cylinder_190.vtk"
Time: 0.955
    volScalarFields            : p
    volVectorFields            : U

    Internal  : "/home/kalel1938/Documents/codex_projects/adaptive_model_reduction/cases/low/VTK/low_191.vtk"
Combining patches:
    patch 0 left
    patch 1 right
    patch 2 down
    patch 3 up
    patch 4 cylinder
    discarding empty/nonConformal/processor patch 5 defaultFaces
    Patch     : "/home/kalel1938/Documents/codex_projects/adaptive_model_reduction/cases/low/VTK/left/left_191.vtk"
    Patch     : "/home/kalel1938/Documents/codex_projects/adaptive_model_reduction/cases/low/VTK/right/right_191.vtk"
    Patch     : "/home/kalel1938/Documents/codex_projects/adaptive_model_reduction/cases/low/VTK/down/down_191.vtk"
    Patch     : "/home/kalel1938/Documents/codex_projects/adaptive_model_reduction/cases/low/VTK/up/up_191.vtk"
    Patch     : "/home/kalel1938/Documents/codex_projects/adaptive_model_reduction/cases/low/VTK/cylinder/cylinder_191.vtk"
Time: 0.96
    volScalarFields            : p
    volVectorFields            : U

    Internal  : "/home/kalel1938/Documents/codex_projects/adaptive_model_reduction/cases/low/VTK/low_192.vtk"
Combining patches:
    patch 0 left
    patch 1 right
    patch 2 down
    patch 3 up
    patch 4 cylinder
    discarding empty/nonConformal/processor patch 5 defaultFaces
    Patch     : "/home/kalel1938/Documents/codex_projects/adaptive_model_reduction/cases/low/VTK/left/left_192.vtk"
    Patch     : "/home/kalel1938/Documents/codex_projects/adaptive_model_reduction/cases/low/VTK/right/right_192.vtk"
    Patch     : "/home/kalel1938/Documents/codex_projects/adaptive_model_reduction/cases/low/VTK/down/down_192.vtk"
    Patch     : "/home/kalel1938/Documents/codex_projects/adaptive_model_reduction/cases/low/VTK/up/up_192.vtk"
    Patch     : "/home/kalel1938/Documents/codex_projects/adaptive_model_reduction/cases/low/VTK/cylinder/cylinder_192.vtk"
Time: 0.965
    volScalarFields            : p
    volVectorFields            : U

    Internal  : "/home/kalel1938/Documents/codex_projects/adaptive_model_reduction/cases/low/VTK/low_193.vtk"
Combining patches:
    patch 0 left
    patch 1 right
    patch 2 down
    patch 3 up
    patch 4 cylinder
    discarding empty/nonConformal/processor patch 5 defaultFaces
    Patch     : "/home/kalel1938/Documents/codex_projects/adaptive_model_reduction/cases/low/VTK/left/left_193.vtk"
    Patch     : "/home/kalel1938/Documents/codex_projects/adaptive_model_reduction/cases/low/VTK/right/right_193.vtk"
    Patch     : "/home/kalel1938/Documents/codex_projects/adaptive_model_reduction/cases/low/VTK/down/down_193.vtk"
    Patch     : "/home/kalel1938/Documents/codex_projects/adaptive_model_reduction/cases/low/VTK/up/up_193.vtk"
    Patch     : "/home/kalel1938/Documents/codex_projects/adaptive_model_reduction/cases/low/VTK/cylinder/cylinder_193.vtk"
Time: 0.97
    volScalarFields            : p
    volVectorFields            : U

    Internal  : "/home/kalel1938/Documents/codex_projects/adaptive_model_reduction/cases/low/VTK/low_194.vtk"
Combining patches:
    patch 0 left
    patch 1 right
    patch 2 down
    patch 3 up
    patch 4 cylinder
    discarding empty/nonConformal/processor patch 5 defaultFaces
    Patch     : "/home/kalel1938/Documents/codex_projects/adaptive_model_reduction/cases/low/VTK/left/left_194.vtk"
    Patch     : "/home/kalel1938/Documents/codex_projects/adaptive_model_reduction/cases/low/VTK/right/right_194.vtk"
    Patch     : "/home/kalel1938/Documents/codex_projects/adaptive_model_reduction/cases/low/VTK/down/down_194.vtk"
    Patch     : "/home/kalel1938/Documents/codex_projects/adaptive_model_reduction/cases/low/VTK/up/up_194.vtk"
    Patch     : "/home/kalel1938/Documents/codex_projects/adaptive_model_reduction/cases/low/VTK/cylinder/cylinder_194.vtk"
Time: 0.975
    volScalarFields            : p
    volVectorFields            : U

    Internal  : "/home/kalel1938/Documents/codex_projects/adaptive_model_reduction/cases/low/VTK/low_195.vtk"
Combining patches:
    patch 0 left
    patch 1 right
    patch 2 down
    patch 3 up
    patch 4 cylinder
    discarding empty/nonConformal/processor patch 5 defaultFaces
    Patch     : "/home/kalel1938/Documents/codex_projects/adaptive_model_reduction/cases/low/VTK/left/left_195.vtk"
    Patch     : "/home/kalel1938/Documents/codex_projects/adaptive_model_reduction/cases/low/VTK/right/right_195.vtk"
    Patch     : "/home/kalel1938/Documents/codex_projects/adaptive_model_reduction/cases/low/VTK/down/down_195.vtk"
    Patch     : "/home/kalel1938/Documents/codex_projects/adaptive_model_reduction/cases/low/VTK/up/up_195.vtk"
    Patch     : "/home/kalel1938/Documents/codex_projects/adaptive_model_reduction/cases/low/VTK/cylinder/cylinder_195.vtk"
Time: 0.98
    volScalarFields            : p
    volVectorFields            : U

    Internal  : "/home/kalel1938/Documents/codex_projects/adaptive_model_reduction/cases/low/VTK/low_196.vtk"
Combining patches:
    patch 0 left
    patch 1 right
    patch 2 down
    patch 3 up
    patch 4 cylinder
    discarding empty/nonConformal/processor patch 5 defaultFaces
    Patch     : "/home/kalel1938/Documents/codex_projects/adaptive_model_reduction/cases/low/VTK/left/left_196.vtk"
    Patch     : "/home/kalel1938/Documents/codex_projects/adaptive_model_reduction/cases/low/VTK/right/right_196.vtk"
    Patch     : "/home/kalel1938/Documents/codex_projects/adaptive_model_reduction/cases/low/VTK/down/down_196.vtk"
    Patch     : "/home/kalel1938/Documents/codex_projects/adaptive_model_reduction/cases/low/VTK/up/up_196.vtk"
    Patch     : "/home/kalel1938/Documents/codex_projects/adaptive_model_reduction/cases/low/VTK/cylinder/cylinder_196.vtk"
Time: 0.985
    volScalarFields            : p
    volVectorFields            : U

    Internal  : "/home/kalel1938/Documents/codex_projects/adaptive_model_reduction/cases/low/VTK/low_197.vtk"
Combining patches:
    patch 0 left
    patch 1 right
    patch 2 down
    patch 3 up
    patch 4 cylinder
    discarding empty/nonConformal/processor patch 5 defaultFaces
    Patch     : "/home/kalel1938/Documents/codex_projects/adaptive_model_reduction/cases/low/VTK/left/left_197.vtk"
    Patch     : "/home/kalel1938/Documents/codex_projects/adaptive_model_reduction/cases/low/VTK/right/right_197.vtk"
    Patch     : "/home/kalel1938/Documents/codex_projects/adaptive_model_reduction/cases/low/VTK/down/down_197.vtk"
    Patch     : "/home/kalel1938/Documents/codex_projects/adaptive_model_reduction/cases/low/VTK/up/up_197.vtk"
    Patch     : "/home/kalel1938/Documents/codex_projects/adaptive_model_reduction/cases/low/VTK/cylinder/cylinder_197.vtk"
Time: 0.99
    volScalarFields            : p
    volVectorFields            : U

    Internal  : "/home/kalel1938/Documents/codex_projects/adaptive_model_reduction/cases/low/VTK/low_198.vtk"
Combining patches:
    patch 0 left
    patch 1 right
    patch 2 down
    patch 3 up
    patch 4 cylinder
    discarding empty/nonConformal/processor patch 5 defaultFaces
    Patch     : "/home/kalel1938/Documents/codex_projects/adaptive_model_reduction/cases/low/VTK/left/left_198.vtk"
    Patch     : "/home/kalel1938/Documents/codex_projects/adaptive_model_reduction/cases/low/VTK/right/right_198.vtk"
    Patch     : "/home/kalel1938/Documents/codex_projects/adaptive_model_reduction/cases/low/VTK/down/down_198.vtk"
    Patch     : "/home/kalel1938/Documents/codex_projects/adaptive_model_reduction/cases/low/VTK/up/up_198.vtk"
    Patch     : "/home/kalel1938/Documents/codex_projects/adaptive_model_reduction/cases/low/VTK/cylinder/cylinder_198.vtk"
Time: 0.995
    volScalarFields            : p
    volVectorFields            : U

    Internal  : "/home/kalel1938/Documents/codex_projects/adaptive_model_reduction/cases/low/VTK/low_199.vtk"
Combining patches:
    patch 0 left
    patch 1 right
    patch 2 down
    patch 3 up
    patch 4 cylinder
    discarding empty/nonConformal/processor patch 5 defaultFaces
    Patch     : "/home/kalel1938/Documents/codex_projects/adaptive_model_reduction/cases/low/VTK/left/left_199.vtk"
    Patch     : "/home/kalel1938/Documents/codex_projects/adaptive_model_reduction/cases/low/VTK/right/right_199.vtk"
    Patch     : "/home/kalel1938/Documents/codex_projects/adaptive_model_reduction/cases/low/VTK/down/down_199.vtk"
    Patch     : "/home/kalel1938/Documents/codex_projects/adaptive_model_reduction/cases/low/VTK/up/up_199.vtk"
    Patch     : "/home/kalel1938/Documents/codex_projects/adaptive_model_reduction/cases/low/VTK/cylinder/cylinder_199.vtk"
Time: 1
    volScalarFields            : p
    volVectorFields            : U

    Internal  : "/home/kalel1938/Documents/codex_projects/adaptive_model_reduction/cases/low/VTK/low_200.vtk"
Combining patches:
    patch 0 left
    patch 1 right
    patch 2 down
    patch 3 up
    patch 4 cylinder
    discarding empty/nonConformal/processor patch 5 defaultFaces
    Patch     : "/home/kalel1938/Documents/codex_projects/adaptive_model_reduction/cases/low/VTK/left/left_200.vtk"
    Patch     : "/home/kalel1938/Documents/codex_projects/adaptive_model_reduction/cases/low/VTK/right/right_200.vtk"
    Patch     : "/home/kalel1938/Documents/codex_projects/adaptive_model_reduction/cases/low/VTK/down/down_200.vtk"
    Patch     : "/home/kalel1938/Documents/codex_projects/adaptive_model_reduction/cases/low/VTK/up/up_200.vtk"
    Patch     : "/home/kalel1938/Documents/codex_projects/adaptive_model_reduction/cases/low/VTK/cylinder/cylinder_200.vtk"
End

[17:40:15] Exporting snapshots to results/low/snapshots ...
[snapshot_export] VTK read unavailable (pyvista not installed); falling back to OpenFOAM ASCII parsing.
Traceback (most recent call last):
  File "/home/kalel1938/Documents/codex_projects/adaptive_model_reduction/rom/python/snapshot_export.py", line 226, in <module>
    main()
    ~~~~^^
  File "/home/kalel1938/Documents/codex_projects/adaptive_model_reduction/rom/python/snapshot_export.py", line 204, in main
    U_mat, p_mat, meta = _read_from_openfoam(
                         ~~~~~~~~~~~~~~~~~~~^
        case_dir, fields=fields, stride=stride, max_snapshots=max_snaps, min_time=min_time
        ^^^^^^^^^^^^^^^^^^^^^^^^^^^^^^^^^^^^^^^^^^^^^^^^^^^^^^^^^^^^^^^^^^^^^^^^^^^^^^^^^^
    )
    ^
  File "/home/kalel1938/Documents/codex_projects/adaptive_model_reduction/rom/python/snapshot_export.py", line 148, in _read_from_openfoam
    U = read_internal_field(td / "U", n_cells=n_cells)
  File "/home/kalel1938/Documents/codex_projects/adaptive_model_reduction/rom/python/foam_ascii.py", line 80, in read_internal_field
    raise ValueError(f"{path}: expected {n} vectors, got {len(triples)}")
ValueError: /home/kalel1938/Documents/codex_projects/adaptive_model_reduction/cases/low/0.005/U: expected 440 vectors, got 0
