[14:08:14] Activated venv: /home/kalel1938/venvs/myenv/bin/activate
[14:08:15] Sourced OpenFOAM: /opt/openfoam13/etc/bashrc
[14:08:15] Post-processing force coefficients over FOM-only fields (low)...
Traceback (most recent call last):
  File "/home/kalel1938/Documents/codex_projects/adaptive_model_reduction (Copy)/rom/python/postprocess_force_coeffs.py", line 225, in <module>
    main()
    ~~~~^^
  File "/home/kalel1938/Documents/codex_projects/adaptive_model_reduction (Copy)/rom/python/postprocess_force_coeffs.py", line 203, in main
    raise RuntimeError(f"foamPostProcess failed (rc={p.returncode}).\nstdout:\n{p.stdout}\nstderr:\n{p.stderr}")
RuntimeError: foamPostProcess failed (rc=-6).
stdout:
/*---------------------------------------------------------------------------*\
  =========                 |
  \\      /  F ield         | OpenFOAM: The Open Source CFD Toolbox
   \\    /   O peration     | Website:  https://openfoam.org
    \\  /    A nd           | Version:  13
     \\/     M anipulation  |
\*---------------------------------------------------------------------------*/
Build  : 13-cde978a97c93
Exec   : foamPostProcess -case /home/kalel1938/Documents/codex_projects/adaptive_model_reduction (Copy)/results/low/fom_only/fom_only_case -solver incompressibleFluid -func forceCoeffsIncompressible -fields (U p) -time 0:80
Date   : Dec 29 2025
Time   : 14:08:15
Host   : "kalel1938-asus"
PID    : 316116

stderr:
fileName::stripInvalid() called for invalid fileName /home/kalel1938/Documents/codex_projects/adaptive_model_reduction(Copy)
    For debug level (= 2) > 1 this is considered fatal

[14:08:20] Post-processing force coefficients over ROM-reconstructed fields (low)...
[14:08:20] Activated venv: /home/kalel1938/venvs/myenv/bin/activate
[14:08:20] Using config: /home/kalel1938/Documents/codex_projects/adaptive_model_reduction (Copy)/rom/configs/low.yaml
[14:08:20] Post-processing force coefficients over reconstructed ROM fields (adaptive case)...
Traceback (most recent call last):
  File "/home/kalel1938/Documents/codex_projects/adaptive_model_reduction (Copy)/rom/python/postprocess_force_coeffs.py", line 225, in <module>
    main()
    ~~~~^^
  File "/home/kalel1938/Documents/codex_projects/adaptive_model_reduction (Copy)/rom/python/postprocess_force_coeffs.py", line 203, in main
    raise RuntimeError(f"foamPostProcess failed (rc={p.returncode}).\nstdout:\n{p.stdout}\nstderr:\n{p.stderr}")
RuntimeError: foamPostProcess failed (rc=-6).
stdout:
/*---------------------------------------------------------------------------*\
  =========                 |
  \\      /  F ield         | OpenFOAM: The Open Source CFD Toolbox
   \\    /   O peration     | Website:  https://openfoam.org
    \\  /    A nd           | Version:  13
     \\/     M anipulation  |
\*---------------------------------------------------------------------------*/
Build  : 13-cde978a97c93
Exec   : foamPostProcess -case /home/kalel1938/Documents/codex_projects/adaptive_model_reduction (Copy)/results/low/adaptive/adaptive_case -solver incompressibleFluid -func forceCoeffsIncompressible -fields (U p) -time 0:10
Date   : Dec 29 2025
Time   : 14:08:20
Host   : "kalel1938-asus"
PID    : 316208

stderr:
fileName::stripInvalid() called for invalid fileName /home/kalel1938/Documents/codex_projects/adaptive_model_reduction(Copy)
    For debug level (= 2) > 1 this is considered fatal

[14:08:24] Post-processing force coefficients over ROM-reconstructed fields (high)...
[14:08:24] Activated venv: /home/kalel1938/venvs/myenv/bin/activate
[14:08:24] Using config: /home/kalel1938/Documents/codex_projects/adaptive_model_reduction (Copy)/rom/configs/high.yaml
[14:08:24] Post-processing force coefficients over reconstructed ROM fields (adaptive case)...
Traceback (most recent call last):
  File "/home/kalel1938/Documents/codex_projects/adaptive_model_reduction (Copy)/rom/python/postprocess_force_coeffs.py", line 225, in <module>
    main()
    ~~~~^^
  File "/home/kalel1938/Documents/codex_projects/adaptive_model_reduction (Copy)/rom/python/postprocess_force_coeffs.py", line 203, in main
    raise RuntimeError(f"foamPostProcess failed (rc={p.returncode}).\nstdout:\n{p.stdout}\nstderr:\n{p.stderr}")
RuntimeError: foamPostProcess failed (rc=-6).
stdout:
/*---------------------------------------------------------------------------*\
  =========                 |
  \\      /  F ield         | OpenFOAM: The Open Source CFD Toolbox
   \\    /   O peration     | Website:  https://openfoam.org
    \\  /    A nd           | Version:  13
     \\/     M anipulation  |
\*---------------------------------------------------------------------------*/
Build  : 13-cde978a97c93
Exec   : foamPostProcess -case /home/kalel1938/Documents/codex_projects/adaptive_model_reduction (Copy)/results/high/adaptive/adaptive_case -solver incompressibleFluid -func forceCoeffsIncompressible -fields (U p) -time 0:5
Date   : Dec 29 2025
Time   : 14:08:25
Host   : "kalel1938-asus"
PID    : 316299

stderr:
fileName::stripInvalid() called for invalid fileName /home/kalel1938/Documents/codex_projects/adaptive_model_reduction(Copy)
    For debug level (= 2) > 1 this is considered fatal

[14:08:25] Post-processing force coefficients over FOM-only fields (high)...
Traceback (most recent call last):
  File "/home/kalel1938/Documents/codex_projects/adaptive_model_reduction (Copy)/rom/python/postprocess_force_coeffs.py", line 225, in <module>
    main()
    ~~~~^^
  File "/home/kalel1938/Documents/codex_projects/adaptive_model_reduction (Copy)/rom/python/postprocess_force_coeffs.py", line 203, in main
    raise RuntimeError(f"foamPostProcess failed (rc={p.returncode}).\nstdout:\n{p.stdout}\nstderr:\n{p.stderr}")
RuntimeError: foamPostProcess failed (rc=-6).
stdout:
/*---------------------------------------------------------------------------*\
  =========                 |
  \\      /  F ield         | OpenFOAM: The Open Source CFD Toolbox
   \\    /   O peration     | Website:  https://openfoam.org
    \\  /    A nd           | Version:  13
     \\/     M anipulation  |
\*---------------------------------------------------------------------------*/
Build  : 13-cde978a97c93
Exec   : foamPostProcess -case /home/kalel1938/Documents/codex_projects/adaptive_model_reduction (Copy)/results/high/fom_only/fom_only_case -solver incompressibleFluid -func forceCoeffsIncompressible -fields (U p) -time 0:5
Date   : Dec 29 2025
Time   : 14:08:25
Host   : "kalel1938-asus"
PID    : 316329

stderr:
fileName::stripInvalid() called for invalid fileName /home/kalel1938/Documents/codex_projects/adaptive_model_reduction(Copy)
    For debug level (= 2) > 1 this is considered fatal

[14:08:25] Running forceCoeffs configuration verification (low/high)...
[verify_forcecoeffs_config] case=low case_dir=/home/kalel1938/Documents/codex_projects/adaptive_model_reduction (Copy)/cases/low
[verify_forcecoeffs_config] cylinder_patch=cylinder is_2d=True inlet_magU=1.0
[verify_forcecoeffs_config] blockage_beta=D/H=0.5
[verify_forcecoeffs_config] system/controlDict:functions:forceCoeffs1: patches=['cylinder'] magUInf=1.0 lRef=2.0 Aref=2.0 dragDir=(1.0, 0.0, 0.0) liftDir=(0.0, 1.0, 0.0) rho=rhoInf rhoInf=1.0
[verify_forcecoeffs_config] Wrote: /home/kalel1938/Documents/codex_projects/adaptive_model_reduction (Copy)/results/forcecoeffs_config_low.json
[verify_forcecoeffs_config] case=high case_dir=/home/kalel1938/Documents/codex_projects/adaptive_model_reduction (Copy)/cases/high
[verify_forcecoeffs_config] cylinder_patch=cylinder is_2d=True inlet_magU=1.0
[verify_forcecoeffs_config] blockage_beta=D/H=0.5
[verify_forcecoeffs_config] system/controlDict:functions:forceCoeffs1: patches=['cylinder'] magUInf=1.0 lRef=2.0 Aref=2.0 dragDir=(1.0, 0.0, 0.0) liftDir=(0.0, 1.0, 0.0) rho=rhoInf rhoInf=1.0
[verify_forcecoeffs_config] Wrote: /home/kalel1938/Documents/codex_projects/adaptive_model_reduction (Copy)/results/forcecoeffs_config_high.json
[14:08:25] Computing force statistics tables (low/high)...
[compute_force_stats] unconfined Re=200 reference: Cd≈1.316, St≈0.1958 (sanity anchor)
[compute_force_stats] Wrote: /home/kalel1938/Documents/codex_projects/adaptive_model_reduction (Copy)/results/low/force_stats.csv
[compute_force_stats] Wrote: /home/kalel1938/Documents/codex_projects/adaptive_model_reduction (Copy)/results/force_stats_low.csv
[compute_force_stats] Wrote: /home/kalel1938/Documents/codex_projects/adaptive_model_reduction (Copy)/report/tables/force_stats_checks_low.tex
[compute_force_stats] NOTE: Large deviation is expected under strong confinement, but only after configuration checks pass.
[compute_force_stats] Wrote: /home/kalel1938/Documents/codex_projects/adaptive_model_reduction (Copy)/results/high/force_stats.csv
[compute_force_stats] Wrote: /home/kalel1938/Documents/codex_projects/adaptive_model_reduction (Copy)/results/force_stats_high.csv
[compute_force_stats] Wrote: /home/kalel1938/Documents/codex_projects/adaptive_model_reduction (Copy)/report/tables/force_stats_checks_high.tex
[compute_force_stats] NOTE: Large deviation is expected under strong confinement, but only after configuration checks pass.
[14:08:26] Rendering low/high flow snapshots used by Figures 23/24/29 (no pvpython)...
Traceback (most recent call last):
  File "/home/kalel1938/Documents/codex_projects/adaptive_model_reduction (Copy)/scripts/render_snapshots_shared.py", line 254, in <module>
    main()
    ~~~~^^
  File "/home/kalel1938/Documents/codex_projects/adaptive_model_reduction (Copy)/scripts/render_snapshots_shared.py", line 164, in main
    _ensure_cell_centres(case_dir, tdir)
    ~~~~~~~~~~~~~~~~~~~~^^^^^^^^^^^^^^^^
  File "/home/kalel1938/Documents/codex_projects/adaptive_model_reduction (Copy)/scripts/render_snapshots_shared.py", line 43, in _ensure_cell_centres
    _run(["postProcess", "-case", str(case_dir), "-func", "writeCellCentres", "-time", str(time_name)])
    ~~~~^^^^^^^^^^^^^^^^^^^^^^^^^^^^^^^^^^^^^^^^^^^^^^^^^^^^^^^^^^^^^^^^^^^^^^^^^^^^^^^^^^^^^^^^^^^^^^^
  File "/home/kalel1938/Documents/codex_projects/adaptive_model_reduction (Copy)/scripts/render_snapshots_shared.py", line 17, in _run
    raise RuntimeError(f"Command failed (rc={p.returncode}): {' '.join(cmd)}\n{p.stdout}")
RuntimeError: Command failed (rc=134): postProcess -case /home/kalel1938/Documents/codex_projects/adaptive_model_reduction (Copy)/cases/low -func writeCellCentres -time 0

postProcess has been superseded and replaced by the more general foamPostProcess
utility which will be executed instead:

/*---------------------------------------------------------------------------*\
  =========                 |
  \\      /  F ield         | OpenFOAM: The Open Source CFD Toolbox
   \\    /   O peration     | Website:  https://openfoam.org
    \\  /    A nd           | Version:  13
     \\/     M anipulation  |
\*---------------------------------------------------------------------------*/
Build  : 13-cde978a97c93
Exec   : foamPostProcess -case /home/kalel1938/Documents/codex_projects/adaptive_model_reduction (Copy)/cases/low -func writeCellCentres -time 0
Date   : Dec 29 2025
Time   : 14:08:26
Host   : "kalel1938-asus"
PID    : 316394
fileName::stripInvalid() called for invalid fileName /home/kalel1938/Documents/codex_projects/adaptive_model_reduction(Copy)
    For debug level (= 2) > 1 this is considered fatal
Aborted (core dumped)

Traceback (most recent call last):
  File "/home/kalel1938/Documents/codex_projects/adaptive_model_reduction (Copy)/scripts/render_snapshots_shared.py", line 254, in <module>
    main()
    ~~~~^^
  File "/home/kalel1938/Documents/codex_projects/adaptive_model_reduction (Copy)/scripts/render_snapshots_shared.py", line 164, in main
    _ensure_cell_centres(case_dir, tdir)
    ~~~~~~~~~~~~~~~~~~~~^^^^^^^^^^^^^^^^
  File "/home/kalel1938/Documents/codex_projects/adaptive_model_reduction (Copy)/scripts/render_snapshots_shared.py", line 43, in _ensure_cell_centres
    _run(["postProcess", "-case", str(case_dir), "-func", "writeCellCentres", "-time", str(time_name)])
    ~~~~^^^^^^^^^^^^^^^^^^^^^^^^^^^^^^^^^^^^^^^^^^^^^^^^^^^^^^^^^^^^^^^^^^^^^^^^^^^^^^^^^^^^^^^^^^^^^^^
  File "/home/kalel1938/Documents/codex_projects/adaptive_model_reduction (Copy)/scripts/render_snapshots_shared.py", line 17, in _run
    raise RuntimeError(f"Command failed (rc={p.returncode}): {' '.join(cmd)}\n{p.stdout}")
RuntimeError: Command failed (rc=134): postProcess -case /home/kalel1938/Documents/codex_projects/adaptive_model_reduction (Copy)/cases/low -func writeCellCentres -time 0.5

postProcess has been superseded and replaced by the more general foamPostProcess
utility which will be executed instead:

/*---------------------------------------------------------------------------*\
  =========                 |
  \\      /  F ield         | OpenFOAM: The Open Source CFD Toolbox
   \\    /   O peration     | Website:  https://openfoam.org
    \\  /    A nd           | Version:  13
     \\/     M anipulation  |
\*---------------------------------------------------------------------------*/
Build  : 13-cde978a97c93
Exec   : foamPostProcess -case /home/kalel1938/Documents/codex_projects/adaptive_model_reduction (Copy)/cases/low -func writeCellCentres -time 0.5
Date   : Dec 29 2025
Time   : 14:08:26
Host   : "kalel1938-asus"
PID    : 316424
fileName::stripInvalid() called for invalid fileName /home/kalel1938/Documents/codex_projects/adaptive_model_reduction(Copy)
    For debug level (= 2) > 1 this is considered fatal
Aborted (core dumped)

Traceback (most recent call last):
  File "/home/kalel1938/Documents/codex_projects/adaptive_model_reduction (Copy)/scripts/render_snapshots_shared.py", line 254, in <module>
    main()
    ~~~~^^
  File "/home/kalel1938/Documents/codex_projects/adaptive_model_reduction (Copy)/scripts/render_snapshots_shared.py", line 164, in main
    _ensure_cell_centres(case_dir, tdir)
    ~~~~~~~~~~~~~~~~~~~~^^^^^^^^^^^^^^^^
  File "/home/kalel1938/Documents/codex_projects/adaptive_model_reduction (Copy)/scripts/render_snapshots_shared.py", line 43, in _ensure_cell_centres
    _run(["postProcess", "-case", str(case_dir), "-func", "writeCellCentres", "-time", str(time_name)])
    ~~~~^^^^^^^^^^^^^^^^^^^^^^^^^^^^^^^^^^^^^^^^^^^^^^^^^^^^^^^^^^^^^^^^^^^^^^^^^^^^^^^^^^^^^^^^^^^^^^^
  File "/home/kalel1938/Documents/codex_projects/adaptive_model_reduction (Copy)/scripts/render_snapshots_shared.py", line 17, in _run
    raise RuntimeError(f"Command failed (rc={p.returncode}): {' '.join(cmd)}\n{p.stdout}")
RuntimeError: Command failed (rc=134): postProcess -case /home/kalel1938/Documents/codex_projects/adaptive_model_reduction (Copy)/cases/low -func writeCellCentres -time 0.5

postProcess has been superseded and replaced by the more general foamPostProcess
utility which will be executed instead:

/*---------------------------------------------------------------------------*\
  =========                 |
  \\      /  F ield         | OpenFOAM: The Open Source CFD Toolbox
   \\    /   O peration     | Website:  https://openfoam.org
    \\  /    A nd           | Version:  13
     \\/     M anipulation  |
\*---------------------------------------------------------------------------*/
Build  : 13-cde978a97c93
Exec   : foamPostProcess -case /home/kalel1938/Documents/codex_projects/adaptive_model_reduction (Copy)/cases/low -func writeCellCentres -time 0.5
Date   : Dec 29 2025
Time   : 14:08:27
Host   : "kalel1938-asus"
PID    : 316454
fileName::stripInvalid() called for invalid fileName /home/kalel1938/Documents/codex_projects/adaptive_model_reduction(Copy)
    For debug level (= 2) > 1 this is considered fatal
Aborted (core dumped)

Traceback (most recent call last):
  File "/home/kalel1938/Documents/codex_projects/adaptive_model_reduction (Copy)/scripts/render_snapshots_shared.py", line 254, in <module>
    main()
    ~~~~^^
  File "/home/kalel1938/Documents/codex_projects/adaptive_model_reduction (Copy)/scripts/render_snapshots_shared.py", line 164, in main
    _ensure_cell_centres(case_dir, tdir)
    ~~~~~~~~~~~~~~~~~~~~^^^^^^^^^^^^^^^^
  File "/home/kalel1938/Documents/codex_projects/adaptive_model_reduction (Copy)/scripts/render_snapshots_shared.py", line 43, in _ensure_cell_centres
    _run(["postProcess", "-case", str(case_dir), "-func", "writeCellCentres", "-time", str(time_name)])
    ~~~~^^^^^^^^^^^^^^^^^^^^^^^^^^^^^^^^^^^^^^^^^^^^^^^^^^^^^^^^^^^^^^^^^^^^^^^^^^^^^^^^^^^^^^^^^^^^^^^
  File "/home/kalel1938/Documents/codex_projects/adaptive_model_reduction (Copy)/scripts/render_snapshots_shared.py", line 17, in _run
    raise RuntimeError(f"Command failed (rc={p.returncode}): {' '.join(cmd)}\n{p.stdout}")
RuntimeError: Command failed (rc=134): postProcess -case /home/kalel1938/Documents/codex_projects/adaptive_model_reduction (Copy)/cases/high -func writeCellCentres -time 0.5

postProcess has been superseded and replaced by the more general foamPostProcess
utility which will be executed instead:

/*---------------------------------------------------------------------------*\
  =========                 |
  \\      /  F ield         | OpenFOAM: The Open Source CFD Toolbox
   \\    /   O peration     | Website:  https://openfoam.org
    \\  /    A nd           | Version:  13
     \\/     M anipulation  |
\*---------------------------------------------------------------------------*/
Build  : 13-cde978a97c93
Exec   : foamPostProcess -case /home/kalel1938/Documents/codex_projects/adaptive_model_reduction (Copy)/cases/high -func writeCellCentres -time 0.5
Date   : Dec 29 2025
Time   : 14:08:27
Host   : "kalel1938-asus"
PID    : 316484
fileName::stripInvalid() called for invalid fileName /home/kalel1938/Documents/codex_projects/adaptive_model_reduction(Copy)
    For debug level (= 2) > 1 this is considered fatal
Aborted (core dumped)

Traceback (most recent call last):
  File "/home/kalel1938/Documents/codex_projects/adaptive_model_reduction (Copy)/scripts/render_snapshots_shared.py", line 254, in <module>
    main()
    ~~~~^^
  File "/home/kalel1938/Documents/codex_projects/adaptive_model_reduction (Copy)/scripts/render_snapshots_shared.py", line 164, in main
    _ensure_cell_centres(case_dir, tdir)
    ~~~~~~~~~~~~~~~~~~~~^^^^^^^^^^^^^^^^
  File "/home/kalel1938/Documents/codex_projects/adaptive_model_reduction (Copy)/scripts/render_snapshots_shared.py", line 43, in _ensure_cell_centres
    _run(["postProcess", "-case", str(case_dir), "-func", "writeCellCentres", "-time", str(time_name)])
    ~~~~^^^^^^^^^^^^^^^^^^^^^^^^^^^^^^^^^^^^^^^^^^^^^^^^^^^^^^^^^^^^^^^^^^^^^^^^^^^^^^^^^^^^^^^^^^^^^^^
  File "/home/kalel1938/Documents/codex_projects/adaptive_model_reduction (Copy)/scripts/render_snapshots_shared.py", line 17, in _run
    raise RuntimeError(f"Command failed (rc={p.returncode}): {' '.join(cmd)}\n{p.stdout}")
RuntimeError: Command failed (rc=134): postProcess -case /home/kalel1938/Documents/codex_projects/adaptive_model_reduction (Copy)/cases/high -func writeCellCentres -time 0.5

postProcess has been superseded and replaced by the more general foamPostProcess
utility which will be executed instead:

/*---------------------------------------------------------------------------*\
  =========                 |
  \\      /  F ield         | OpenFOAM: The Open Source CFD Toolbox
   \\    /   O peration     | Website:  https://openfoam.org
    \\  /    A nd           | Version:  13
     \\/     M anipulation  |
\*---------------------------------------------------------------------------*/
Build  : 13-cde978a97c93
Exec   : foamPostProcess -case /home/kalel1938/Documents/codex_projects/adaptive_model_reduction (Copy)/cases/high -func writeCellCentres -time 0.5
Date   : Dec 29 2025
Time   : 14:08:28
Host   : "kalel1938-asus"
PID    : 316514
fileName::stripInvalid() called for invalid fileName /home/kalel1938/Documents/codex_projects/adaptive_model_reduction(Copy)
    For debug level (= 2) > 1 this is considered fatal
Aborted (core dumped)

[14:08:28] Rendering vorticity comparison (low: FOM vs ROM, no pvpython)...
[render_vorticity_comparison] FAIL: Command failed (rc=134): postProcess -case /home/kalel1938/Documents/codex_projects/adaptive_model_reduction (Copy)/cases/low -func vorticity -time 0.5

postProcess has been superseded and replaced by the more general foamPostProcess
utility which will be executed instead:

/*---------------------------------------------------------------------------*\
  =========                 |
  \\      /  F ield         | OpenFOAM: The Open Source CFD Toolbox
   \\    /   O peration     | Website:  https://openfoam.org
    \\  /    A nd           | Version:  13
     \\/     M anipulation  |
\*---------------------------------------------------------------------------*/
Build  : 13-cde978a97c93
Exec   : foamPostProcess -case /home/kalel1938/Documents/codex_projects/adaptive_model_reduction (Copy)/cases/low -func vorticity -time 0.5
Date   : Dec 29 2025
Time   : 14:08:28
Host   : "kalel1938-asus"
PID    : 316547
fileName::stripInvalid() called for invalid fileName /home/kalel1938/Documents/codex_projects/adaptive_model_reduction(Copy)
    For debug level (= 2) > 1 this is considered fatal
Aborted (core dumped)

Traceback (most recent call last):
  File "/home/kalel1938/Documents/codex_projects/adaptive_model_reduction (Copy)/scripts/render_vorticity_comparison.py", line 187, in <module>
    main()
    ~~~~^^
  File "/home/kalel1938/Documents/codex_projects/adaptive_model_reduction (Copy)/scripts/render_vorticity_comparison.py", line 88, in main
    _ensure_fields(fom_case, time_name=time_fom)
    ~~~~~~~~~~~~~~^^^^^^^^^^^^^^^^^^^^^^^^^^^^^^
  File "/home/kalel1938/Documents/codex_projects/adaptive_model_reduction (Copy)/scripts/render_vorticity_comparison.py", line 21, in _ensure_fields
    _run(["postProcess", "-case", str(case_dir), "-func", "vorticity", "-time", str(time_name)])
    ~~~~^^^^^^^^^^^^^^^^^^^^^^^^^^^^^^^^^^^^^^^^^^^^^^^^^^^^^^^^^^^^^^^^^^^^^^^^^^^^^^^^^^^^^^^^
  File "/home/kalel1938/Documents/codex_projects/adaptive_model_reduction (Copy)/scripts/render_vorticity_comparison.py", line 16, in _run
    raise RuntimeError(f"Command failed (rc={p.returncode}): {' '.join(cmd)}\n{p.stdout}")
RuntimeError: Command failed (rc=134): postProcess -case /home/kalel1938/Documents/codex_projects/adaptive_model_reduction (Copy)/cases/low -func vorticity -time 0.5

postProcess has been superseded and replaced by the more general foamPostProcess
utility which will be executed instead:

/*---------------------------------------------------------------------------*\
  =========                 |
  \\      /  F ield         | OpenFOAM: The Open Source CFD Toolbox
   \\    /   O peration     | Website:  https://openfoam.org
    \\  /    A nd           | Version:  13
     \\/     M anipulation  |
\*---------------------------------------------------------------------------*/
Build  : 13-cde978a97c93
Exec   : foamPostProcess -case /home/kalel1938/Documents/codex_projects/adaptive_model_reduction (Copy)/cases/low -func vorticity -time 0.5
Date   : Dec 29 2025
Time   : 14:08:28
Host   : "kalel1938-asus"
PID    : 316547
fileName::stripInvalid() called for invalid fileName /home/kalel1938/Documents/codex_projects/adaptive_model_reduction(Copy)
    For debug level (= 2) > 1 this is considered fatal
Aborted (core dumped)

[14:08:28] Rendering velocity-magnitude comparisons (no pvpython)...
Traceback (most recent call last):
  File "/home/kalel1938/Documents/codex_projects/adaptive_model_reduction (Copy)/scripts/render_umag_comparison.py", line 195, in <module>
    main()
    ~~~~^^
  File "/home/kalel1938/Documents/codex_projects/adaptive_model_reduction (Copy)/scripts/render_umag_comparison.py", line 92, in main
    _ensure_cell_centres(left_case, t_left)
    ~~~~~~~~~~~~~~~~~~~~^^^^^^^^^^^^^^^^^^^
  File "/home/kalel1938/Documents/codex_projects/adaptive_model_reduction (Copy)/scripts/render_umag_comparison.py", line 44, in _ensure_cell_centres
    _run(["postProcess", "-case", str(case_dir), "-func", "writeCellCentres", "-time", str(time_name)])
    ~~~~^^^^^^^^^^^^^^^^^^^^^^^^^^^^^^^^^^^^^^^^^^^^^^^^^^^^^^^^^^^^^^^^^^^^^^^^^^^^^^^^^^^^^^^^^^^^^^^
  File "/home/kalel1938/Documents/codex_projects/adaptive_model_reduction (Copy)/scripts/render_umag_comparison.py", line 16, in _run
    raise RuntimeError(f"Command failed (rc={p.returncode}): {' '.join(cmd)}\n{p.stdout}")
RuntimeError: Command failed (rc=134): postProcess -case /home/kalel1938/Documents/codex_projects/adaptive_model_reduction (Copy)/cases/low -func writeCellCentres -time 0.5

postProcess has been superseded and replaced by the more general foamPostProcess
utility which will be executed instead:

/*---------------------------------------------------------------------------*\
  =========                 |
  \\      /  F ield         | OpenFOAM: The Open Source CFD Toolbox
   \\    /   O peration     | Website:  https://openfoam.org
    \\  /    A nd           | Version:  13
     \\/     M anipulation  |
\*---------------------------------------------------------------------------*/
Build  : 13-cde978a97c93
Exec   : foamPostProcess -case /home/kalel1938/Documents/codex_projects/adaptive_model_reduction (Copy)/cases/low -func writeCellCentres -time 0.5
Date   : Dec 29 2025
Time   : 14:08:28
Host   : "kalel1938-asus"
PID    : 316585
fileName::stripInvalid() called for invalid fileName /home/kalel1938/Documents/codex_projects/adaptive_model_reduction(Copy)
    For debug level (= 2) > 1 this is considered fatal
Aborted (core dumped)

Traceback (most recent call last):
  File "/home/kalel1938/Documents/codex_projects/adaptive_model_reduction (Copy)/scripts/render_umag_comparison.py", line 195, in <module>
    main()
    ~~~~^^
  File "/home/kalel1938/Documents/codex_projects/adaptive_model_reduction (Copy)/scripts/render_umag_comparison.py", line 92, in main
    _ensure_cell_centres(left_case, t_left)
    ~~~~~~~~~~~~~~~~~~~~^^^^^^^^^^^^^^^^^^^
  File "/home/kalel1938/Documents/codex_projects/adaptive_model_reduction (Copy)/scripts/render_umag_comparison.py", line 44, in _ensure_cell_centres
    _run(["postProcess", "-case", str(case_dir), "-func", "writeCellCentres", "-time", str(time_name)])
    ~~~~^^^^^^^^^^^^^^^^^^^^^^^^^^^^^^^^^^^^^^^^^^^^^^^^^^^^^^^^^^^^^^^^^^^^^^^^^^^^^^^^^^^^^^^^^^^^^^^
  File "/home/kalel1938/Documents/codex_projects/adaptive_model_reduction (Copy)/scripts/render_umag_comparison.py", line 16, in _run
    raise RuntimeError(f"Command failed (rc={p.returncode}): {' '.join(cmd)}\n{p.stdout}")
RuntimeError: Command failed (rc=134): postProcess -case /home/kalel1938/Documents/codex_projects/adaptive_model_reduction (Copy)/results/high/fom_only/fom_only_case -func writeCellCentres -time 0.5

postProcess has been superseded and replaced by the more general foamPostProcess
utility which will be executed instead:

/*---------------------------------------------------------------------------*\
  =========                 |
  \\      /  F ield         | OpenFOAM: The Open Source CFD Toolbox
   \\    /   O peration     | Website:  https://openfoam.org
    \\  /    A nd           | Version:  13
     \\/     M anipulation  |
\*---------------------------------------------------------------------------*/
Build  : 13-cde978a97c93
Exec   : foamPostProcess -case /home/kalel1938/Documents/codex_projects/adaptive_model_reduction (Copy)/results/high/fom_only/fom_only_case -func writeCellCentres -time 0.5
Date   : Dec 29 2025
Time   : 14:08:29
Host   : "kalel1938-asus"
PID    : 316615
fileName::stripInvalid() called for invalid fileName /home/kalel1938/Documents/codex_projects/adaptive_model_reduction(Copy)
    For debug level (= 2) > 1 this is considered fatal
Aborted (core dumped)

[14:08:29] Generating tables/figures from results...
[report_assets] Wrote tables to: /home/kalel1938/Documents/codex_projects/adaptive_model_reduction (Copy)/report/tables
[report_assets] Wrote/copied figures to: /home/kalel1938/Documents/codex_projects/adaptive_model_reduction (Copy)/report/figures
[14:08:33] Generating BibTeX from references PDFs...
[references_bib] Wrote: /home/kalel1938/Documents/codex_projects/adaptive_model_reduction (Copy)/report/report.bib (10 entries)
[14:08:33] Exporting first 3 POD velocity modes to an OpenFOAM case (low)...
[export_pod_modes] Wrote modes case: /home/kalel1938/Documents/codex_projects/adaptive_model_reduction (Copy)/results/low/modes_case
[14:08:33] Rendering POD mode snapshots used by Figure 27 (no pvpython)...
Traceback (most recent call last):
  File "/home/kalel1938/Documents/codex_projects/adaptive_model_reduction (Copy)/scripts/render_snapshots_shared.py", line 254, in <module>
    main()
    ~~~~^^
  File "/home/kalel1938/Documents/codex_projects/adaptive_model_reduction (Copy)/scripts/render_snapshots_shared.py", line 164, in main
    _ensure_cell_centres(case_dir, tdir)
    ~~~~~~~~~~~~~~~~~~~~^^^^^^^^^^^^^^^^
  File "/home/kalel1938/Documents/codex_projects/adaptive_model_reduction (Copy)/scripts/render_snapshots_shared.py", line 43, in _ensure_cell_centres
    _run(["postProcess", "-case", str(case_dir), "-func", "writeCellCentres", "-time", str(time_name)])
    ~~~~^^^^^^^^^^^^^^^^^^^^^^^^^^^^^^^^^^^^^^^^^^^^^^^^^^^^^^^^^^^^^^^^^^^^^^^^^^^^^^^^^^^^^^^^^^^^^^^
  File "/home/kalel1938/Documents/codex_projects/adaptive_model_reduction (Copy)/scripts/render_snapshots_shared.py", line 17, in _run
    raise RuntimeError(f"Command failed (rc={p.returncode}): {' '.join(cmd)}\n{p.stdout}")
RuntimeError: Command failed (rc=134): postProcess -case /home/kalel1938/Documents/codex_projects/adaptive_model_reduction (Copy)/results/low/modes_case -func writeCellCentres -time 1001

postProcess has been superseded and replaced by the more general foamPostProcess
utility which will be executed instead:

/*---------------------------------------------------------------------------*\
  =========                 |
  \\      /  F ield         | OpenFOAM: The Open Source CFD Toolbox
   \\    /   O peration     | Website:  https://openfoam.org
    \\  /    A nd           | Version:  13
     \\/     M anipulation  |
\*---------------------------------------------------------------------------*/
Build  : 13-cde978a97c93
Exec   : foamPostProcess -case /home/kalel1938/Documents/codex_projects/adaptive_model_reduction (Copy)/results/low/modes_case -func writeCellCentres -time 1001
Date   : Dec 29 2025
Time   : 14:08:34
Host   : "kalel1938-asus"
PID    : 316714
fileName::stripInvalid() called for invalid fileName /home/kalel1938/Documents/codex_projects/adaptive_model_reduction(Copy)
    For debug level (= 2) > 1 this is considered fatal
Aborted (core dumped)

[14:08:34] Attempting ParaView screenshots (pvpython; offscreen when possible)...
Traceback (most recent call last):
  File "/home/kalel1938/Documents/codex_projects/adaptive_model_reduction (Copy)/rom/python/pv_screenshots.py", line 986, in <module>
    main()
    ~~~~^^
  File "/home/kalel1938/Documents/codex_projects/adaptive_model_reduction (Copy)/rom/python/pv_screenshots.py", line 102, in main
    _ensure_vtk_for_case(
    ~~~~~~~~~~~~~~~~~~~~^
        (root / args.modes_case).resolve(),
        ^^^^^^^^^^^^^^^^^^^^^^^^^^^^^^^^^^^
        times=["1001", "1002", "1003"],
        ^^^^^^^^^^^^^^^^^^^^^^^^^^^^^^^
        expected_globs=["modes_case_1001*.vtk", "modes_case_1002*.vtk", "modes_case_1003*.vtk"],
        ^^^^^^^^^^^^^^^^^^^^^^^^^^^^^^^^^^^^^^^^^^^^^^^^^^^^^^^^^^^^^^^^^^^^^^^^^^^^^^^^^^^^^^^^
    )
    ^
  File "/home/kalel1938/Documents/codex_projects/adaptive_model_reduction (Copy)/rom/python/pv_screenshots.py", line 42, in _ensure_vtk_for_case
    _run(["foamToVTK", "-useTimeName", "-time", time_sel, "-fields", fields], cwd=case_dir)
    ~~~~^^^^^^^^^^^^^^^^^^^^^^^^^^^^^^^^^^^^^^^^^^^^^^^^^^^^^^^^^^^^^^^^^^^^^^^^^^^^^^^^^^^
  File "/home/kalel1938/Documents/codex_projects/adaptive_model_reduction (Copy)/rom/python/pv_screenshots.py", line 13, in _run
    raise RuntimeError(f"Command failed (rc={p.returncode}): {' '.join(cmd)}\n{p.stdout}")
RuntimeError: Command failed (rc=-6): foamToVTK -useTimeName -time 1001,1002,1003 -fields (U p)
/*---------------------------------------------------------------------------*\
  =========                 |
  \\      /  F ield         | OpenFOAM: The Open Source CFD Toolbox
   \\    /   O peration     | Website:  https://openfoam.org
    \\  /    A nd           | Version:  13
     \\/     M anipulation  |
\*---------------------------------------------------------------------------*/
Build  : 13-cde978a97c93
Exec   : foamToVTK -useTimeName -time 1001,1002,1003 -fields (U p)
Date   : Dec 29 2025
Time   : 14:08:34
Host   : "kalel1938-asus"
PID    : 316734
fileName::stripInvalid() called for invalid fileName /home/kalel1938/Documents/codex_projects/adaptive_model_reduction(Copy)/results/low/modes_case
    For debug level (= 2) > 1 this is considered fatal

[14:08:38] Re-rendering report snapshots (enforce shared color scale + consistent colorbar placement)...
Traceback (most recent call last):
  File "/home/kalel1938/Documents/codex_projects/adaptive_model_reduction (Copy)/scripts/render_snapshots_shared.py", line 254, in <module>
    main()
    ~~~~^^
  File "/home/kalel1938/Documents/codex_projects/adaptive_model_reduction (Copy)/scripts/render_snapshots_shared.py", line 164, in main
    _ensure_cell_centres(case_dir, tdir)
    ~~~~~~~~~~~~~~~~~~~~^^^^^^^^^^^^^^^^
  File "/home/kalel1938/Documents/codex_projects/adaptive_model_reduction (Copy)/scripts/render_snapshots_shared.py", line 43, in _ensure_cell_centres
    _run(["postProcess", "-case", str(case_dir), "-func", "writeCellCentres", "-time", str(time_name)])
    ~~~~^^^^^^^^^^^^^^^^^^^^^^^^^^^^^^^^^^^^^^^^^^^^^^^^^^^^^^^^^^^^^^^^^^^^^^^^^^^^^^^^^^^^^^^^^^^^^^^
  File "/home/kalel1938/Documents/codex_projects/adaptive_model_reduction (Copy)/scripts/render_snapshots_shared.py", line 17, in _run
    raise RuntimeError(f"Command failed (rc={p.returncode}): {' '.join(cmd)}\n{p.stdout}")
RuntimeError: Command failed (rc=134): postProcess -case /home/kalel1938/Documents/codex_projects/adaptive_model_reduction (Copy)/cases/low -func writeCellCentres -time 0

postProcess has been superseded and replaced by the more general foamPostProcess
utility which will be executed instead:

/*---------------------------------------------------------------------------*\
  =========                 |
  \\      /  F ield         | OpenFOAM: The Open Source CFD Toolbox
   \\    /   O peration     | Website:  https://openfoam.org
    \\  /    A nd           | Version:  13
     \\/     M anipulation  |
\*---------------------------------------------------------------------------*/
Build  : 13-cde978a97c93
Exec   : foamPostProcess -case /home/kalel1938/Documents/codex_projects/adaptive_model_reduction (Copy)/cases/low -func writeCellCentres -time 0
Date   : Dec 29 2025
Time   : 14:08:38
Host   : "kalel1938-asus"
PID    : 316809
fileName::stripInvalid() called for invalid fileName /home/kalel1938/Documents/codex_projects/adaptive_model_reduction(Copy)
    For debug level (= 2) > 1 this is considered fatal
Aborted (core dumped)

Traceback (most recent call last):
  File "/home/kalel1938/Documents/codex_projects/adaptive_model_reduction (Copy)/scripts/render_snapshots_shared.py", line 254, in <module>
    main()
    ~~~~^^
  File "/home/kalel1938/Documents/codex_projects/adaptive_model_reduction (Copy)/scripts/render_snapshots_shared.py", line 164, in main
    _ensure_cell_centres(case_dir, tdir)
    ~~~~~~~~~~~~~~~~~~~~^^^^^^^^^^^^^^^^
  File "/home/kalel1938/Documents/codex_projects/adaptive_model_reduction (Copy)/scripts/render_snapshots_shared.py", line 43, in _ensure_cell_centres
    _run(["postProcess", "-case", str(case_dir), "-func", "writeCellCentres", "-time", str(time_name)])
    ~~~~^^^^^^^^^^^^^^^^^^^^^^^^^^^^^^^^^^^^^^^^^^^^^^^^^^^^^^^^^^^^^^^^^^^^^^^^^^^^^^^^^^^^^^^^^^^^^^^
  File "/home/kalel1938/Documents/codex_projects/adaptive_model_reduction (Copy)/scripts/render_snapshots_shared.py", line 17, in _run
    raise RuntimeError(f"Command failed (rc={p.returncode}): {' '.join(cmd)}\n{p.stdout}")
RuntimeError: Command failed (rc=134): postProcess -case /home/kalel1938/Documents/codex_projects/adaptive_model_reduction (Copy)/cases/low -func writeCellCentres -time 0.5

postProcess has been superseded and replaced by the more general foamPostProcess
utility which will be executed instead:

/*---------------------------------------------------------------------------*\
  =========                 |
  \\      /  F ield         | OpenFOAM: The Open Source CFD Toolbox
   \\    /   O peration     | Website:  https://openfoam.org
    \\  /    A nd           | Version:  13
     \\/     M anipulation  |
\*---------------------------------------------------------------------------*/
Build  : 13-cde978a97c93
Exec   : foamPostProcess -case /home/kalel1938/Documents/codex_projects/adaptive_model_reduction (Copy)/cases/low -func writeCellCentres -time 0.5
Date   : Dec 29 2025
Time   : 14:08:38
Host   : "kalel1938-asus"
PID    : 316839
fileName::stripInvalid() called for invalid fileName /home/kalel1938/Documents/codex_projects/adaptive_model_reduction(Copy)
    For debug level (= 2) > 1 this is considered fatal
Aborted (core dumped)

Traceback (most recent call last):
  File "/home/kalel1938/Documents/codex_projects/adaptive_model_reduction (Copy)/scripts/render_snapshots_shared.py", line 254, in <module>
    main()
    ~~~~^^
  File "/home/kalel1938/Documents/codex_projects/adaptive_model_reduction (Copy)/scripts/render_snapshots_shared.py", line 164, in main
    _ensure_cell_centres(case_dir, tdir)
    ~~~~~~~~~~~~~~~~~~~~^^^^^^^^^^^^^^^^
  File "/home/kalel1938/Documents/codex_projects/adaptive_model_reduction (Copy)/scripts/render_snapshots_shared.py", line 43, in _ensure_cell_centres
    _run(["postProcess", "-case", str(case_dir), "-func", "writeCellCentres", "-time", str(time_name)])
    ~~~~^^^^^^^^^^^^^^^^^^^^^^^^^^^^^^^^^^^^^^^^^^^^^^^^^^^^^^^^^^^^^^^^^^^^^^^^^^^^^^^^^^^^^^^^^^^^^^^
  File "/home/kalel1938/Documents/codex_projects/adaptive_model_reduction (Copy)/scripts/render_snapshots_shared.py", line 17, in _run
    raise RuntimeError(f"Command failed (rc={p.returncode}): {' '.join(cmd)}\n{p.stdout}")
RuntimeError: Command failed (rc=134): postProcess -case /home/kalel1938/Documents/codex_projects/adaptive_model_reduction (Copy)/cases/low -func writeCellCentres -time 0.5

postProcess has been superseded and replaced by the more general foamPostProcess
utility which will be executed instead:

/*---------------------------------------------------------------------------*\
  =========                 |
  \\      /  F ield         | OpenFOAM: The Open Source CFD Toolbox
   \\    /   O peration     | Website:  https://openfoam.org
    \\  /    A nd           | Version:  13
     \\/     M anipulation  |
\*---------------------------------------------------------------------------*/
Build  : 13-cde978a97c93
Exec   : foamPostProcess -case /home/kalel1938/Documents/codex_projects/adaptive_model_reduction (Copy)/cases/low -func writeCellCentres -time 0.5
Date   : Dec 29 2025
Time   : 14:08:39
Host   : "kalel1938-asus"
PID    : 316869
fileName::stripInvalid() called for invalid fileName /home/kalel1938/Documents/codex_projects/adaptive_model_reduction(Copy)
    For debug level (= 2) > 1 this is considered fatal
Aborted (core dumped)

Traceback (most recent call last):
  File "/home/kalel1938/Documents/codex_projects/adaptive_model_reduction (Copy)/scripts/render_snapshots_shared.py", line 254, in <module>
    main()
    ~~~~^^
  File "/home/kalel1938/Documents/codex_projects/adaptive_model_reduction (Copy)/scripts/render_snapshots_shared.py", line 164, in main
    _ensure_cell_centres(case_dir, tdir)
    ~~~~~~~~~~~~~~~~~~~~^^^^^^^^^^^^^^^^
  File "/home/kalel1938/Documents/codex_projects/adaptive_model_reduction (Copy)/scripts/render_snapshots_shared.py", line 43, in _ensure_cell_centres
    _run(["postProcess", "-case", str(case_dir), "-func", "writeCellCentres", "-time", str(time_name)])
    ~~~~^^^^^^^^^^^^^^^^^^^^^^^^^^^^^^^^^^^^^^^^^^^^^^^^^^^^^^^^^^^^^^^^^^^^^^^^^^^^^^^^^^^^^^^^^^^^^^^
  File "/home/kalel1938/Documents/codex_projects/adaptive_model_reduction (Copy)/scripts/render_snapshots_shared.py", line 17, in _run
    raise RuntimeError(f"Command failed (rc={p.returncode}): {' '.join(cmd)}\n{p.stdout}")
RuntimeError: Command failed (rc=134): postProcess -case /home/kalel1938/Documents/codex_projects/adaptive_model_reduction (Copy)/cases/high -func writeCellCentres -time 0.5

postProcess has been superseded and replaced by the more general foamPostProcess
utility which will be executed instead:

/*---------------------------------------------------------------------------*\
  =========                 |
  \\      /  F ield         | OpenFOAM: The Open Source CFD Toolbox
   \\    /   O peration     | Website:  https://openfoam.org
    \\  /    A nd           | Version:  13
     \\/     M anipulation  |
\*---------------------------------------------------------------------------*/
Build  : 13-cde978a97c93
Exec   : foamPostProcess -case /home/kalel1938/Documents/codex_projects/adaptive_model_reduction (Copy)/cases/high -func writeCellCentres -time 0.5
Date   : Dec 29 2025
Time   : 14:08:39
Host   : "kalel1938-asus"
PID    : 316899
fileName::stripInvalid() called for invalid fileName /home/kalel1938/Documents/codex_projects/adaptive_model_reduction(Copy)
    For debug level (= 2) > 1 this is considered fatal
Aborted (core dumped)

Traceback (most recent call last):
  File "/home/kalel1938/Documents/codex_projects/adaptive_model_reduction (Copy)/scripts/render_snapshots_shared.py", line 254, in <module>
    main()
    ~~~~^^
  File "/home/kalel1938/Documents/codex_projects/adaptive_model_reduction (Copy)/scripts/render_snapshots_shared.py", line 164, in main
    _ensure_cell_centres(case_dir, tdir)
    ~~~~~~~~~~~~~~~~~~~~^^^^^^^^^^^^^^^^
  File "/home/kalel1938/Documents/codex_projects/adaptive_model_reduction (Copy)/scripts/render_snapshots_shared.py", line 43, in _ensure_cell_centres
    _run(["postProcess", "-case", str(case_dir), "-func", "writeCellCentres", "-time", str(time_name)])
    ~~~~^^^^^^^^^^^^^^^^^^^^^^^^^^^^^^^^^^^^^^^^^^^^^^^^^^^^^^^^^^^^^^^^^^^^^^^^^^^^^^^^^^^^^^^^^^^^^^^
  File "/home/kalel1938/Documents/codex_projects/adaptive_model_reduction (Copy)/scripts/render_snapshots_shared.py", line 17, in _run
    raise RuntimeError(f"Command failed (rc={p.returncode}): {' '.join(cmd)}\n{p.stdout}")
RuntimeError: Command failed (rc=134): postProcess -case /home/kalel1938/Documents/codex_projects/adaptive_model_reduction (Copy)/cases/high -func writeCellCentres -time 0.5

postProcess has been superseded and replaced by the more general foamPostProcess
utility which will be executed instead:

/*---------------------------------------------------------------------------*\
  =========                 |
  \\      /  F ield         | OpenFOAM: The Open Source CFD Toolbox
   \\    /   O peration     | Website:  https://openfoam.org
    \\  /    A nd           | Version:  13
     \\/     M anipulation  |
\*---------------------------------------------------------------------------*/
Build  : 13-cde978a97c93
Exec   : foamPostProcess -case /home/kalel1938/Documents/codex_projects/adaptive_model_reduction (Copy)/cases/high -func writeCellCentres -time 0.5
Date   : Dec 29 2025
Time   : 14:08:39
Host   : "kalel1938-asus"
PID    : 316929
fileName::stripInvalid() called for invalid fileName /home/kalel1938/Documents/codex_projects/adaptive_model_reduction(Copy)
    For debug level (= 2) > 1 this is considered fatal
Aborted (core dumped)

Traceback (most recent call last):
  File "/home/kalel1938/Documents/codex_projects/adaptive_model_reduction (Copy)/scripts/render_snapshots_shared.py", line 254, in <module>
    main()
    ~~~~^^
  File "/home/kalel1938/Documents/codex_projects/adaptive_model_reduction (Copy)/scripts/render_snapshots_shared.py", line 164, in main
    _ensure_cell_centres(case_dir, tdir)
    ~~~~~~~~~~~~~~~~~~~~^^^^^^^^^^^^^^^^
  File "/home/kalel1938/Documents/codex_projects/adaptive_model_reduction (Copy)/scripts/render_snapshots_shared.py", line 43, in _ensure_cell_centres
    _run(["postProcess", "-case", str(case_dir), "-func", "writeCellCentres", "-time", str(time_name)])
    ~~~~^^^^^^^^^^^^^^^^^^^^^^^^^^^^^^^^^^^^^^^^^^^^^^^^^^^^^^^^^^^^^^^^^^^^^^^^^^^^^^^^^^^^^^^^^^^^^^^
  File "/home/kalel1938/Documents/codex_projects/adaptive_model_reduction (Copy)/scripts/render_snapshots_shared.py", line 17, in _run
    raise RuntimeError(f"Command failed (rc={p.returncode}): {' '.join(cmd)}\n{p.stdout}")
RuntimeError: Command failed (rc=134): postProcess -case /home/kalel1938/Documents/codex_projects/adaptive_model_reduction (Copy)/results/low/modes_case -func writeCellCentres -time 1001

postProcess has been superseded and replaced by the more general foamPostProcess
utility which will be executed instead:

/*---------------------------------------------------------------------------*\
  =========                 |
  \\      /  F ield         | OpenFOAM: The Open Source CFD Toolbox
   \\    /   O peration     | Website:  https://openfoam.org
    \\  /    A nd           | Version:  13
     \\/     M anipulation  |
\*---------------------------------------------------------------------------*/
Build  : 13-cde978a97c93
Exec   : foamPostProcess -case /home/kalel1938/Documents/codex_projects/adaptive_model_reduction (Copy)/results/low/modes_case -func writeCellCentres -time 1001
Date   : Dec 29 2025
Time   : 14:08:40
Host   : "kalel1938-asus"
PID    : 316959
fileName::stripInvalid() called for invalid fileName /home/kalel1938/Documents/codex_projects/adaptive_model_reduction(Copy)
    For debug level (= 2) > 1 this is considered fatal
Aborted (core dumped)

[render_vorticity_comparison] FAIL: Command failed (rc=134): postProcess -case /home/kalel1938/Documents/codex_projects/adaptive_model_reduction (Copy)/cases/low -func vorticity -time 0.5

postProcess has been superseded and replaced by the more general foamPostProcess
utility which will be executed instead:

/*---------------------------------------------------------------------------*\
  =========                 |
  \\      /  F ield         | OpenFOAM: The Open Source CFD Toolbox
   \\    /   O peration     | Website:  https://openfoam.org
    \\  /    A nd           | Version:  13
     \\/     M anipulation  |
\*---------------------------------------------------------------------------*/
Build  : 13-cde978a97c93
Exec   : foamPostProcess -case /home/kalel1938/Documents/codex_projects/adaptive_model_reduction (Copy)/cases/low -func vorticity -time 0.5
Date   : Dec 29 2025
Time   : 14:08:40
Host   : "kalel1938-asus"
PID    : 316989
fileName::stripInvalid() called for invalid fileName /home/kalel1938/Documents/codex_projects/adaptive_model_reduction(Copy)
    For debug level (= 2) > 1 this is considered fatal
Aborted (core dumped)

Traceback (most recent call last):
  File "/home/kalel1938/Documents/codex_projects/adaptive_model_reduction (Copy)/scripts/render_vorticity_comparison.py", line 187, in <module>
    main()
    ~~~~^^
  File "/home/kalel1938/Documents/codex_projects/adaptive_model_reduction (Copy)/scripts/render_vorticity_comparison.py", line 88, in main
    _ensure_fields(fom_case, time_name=time_fom)
    ~~~~~~~~~~~~~~^^^^^^^^^^^^^^^^^^^^^^^^^^^^^^
  File "/home/kalel1938/Documents/codex_projects/adaptive_model_reduction (Copy)/scripts/render_vorticity_comparison.py", line 21, in _ensure_fields
    _run(["postProcess", "-case", str(case_dir), "-func", "vorticity", "-time", str(time_name)])
    ~~~~^^^^^^^^^^^^^^^^^^^^^^^^^^^^^^^^^^^^^^^^^^^^^^^^^^^^^^^^^^^^^^^^^^^^^^^^^^^^^^^^^^^^^^^^
  File "/home/kalel1938/Documents/codex_projects/adaptive_model_reduction (Copy)/scripts/render_vorticity_comparison.py", line 16, in _run
    raise RuntimeError(f"Command failed (rc={p.returncode}): {' '.join(cmd)}\n{p.stdout}")
RuntimeError: Command failed (rc=134): postProcess -case /home/kalel1938/Documents/codex_projects/adaptive_model_reduction (Copy)/cases/low -func vorticity -time 0.5

postProcess has been superseded and replaced by the more general foamPostProcess
utility which will be executed instead:

/*---------------------------------------------------------------------------*\
  =========                 |
  \\      /  F ield         | OpenFOAM: The Open Source CFD Toolbox
   \\    /   O peration     | Website:  https://openfoam.org
    \\  /    A nd           | Version:  13
     \\/     M anipulation  |
\*---------------------------------------------------------------------------*/
Build  : 13-cde978a97c93
Exec   : foamPostProcess -case /home/kalel1938/Documents/codex_projects/adaptive_model_reduction (Copy)/cases/low -func vorticity -time 0.5
Date   : Dec 29 2025
Time   : 14:08:40
Host   : "kalel1938-asus"
PID    : 316989
fileName::stripInvalid() called for invalid fileName /home/kalel1938/Documents/codex_projects/adaptive_model_reduction(Copy)
    For debug level (= 2) > 1 this is considered fatal
Aborted (core dumped)

[14:08:40] Building combined FOM/ROM comparison figure...
[14:08:41] Building combined FOM/ROM vorticity comparison figure (low)...
[14:08:43] Auto-cropping ParaView screenshots (reduce whitespace)...
[14:08:48] Compiling LaTeX report...
This is pdfTeX, Version 3.141592653-2.6-1.40.28 (TeX Live 2025) (preloaded format=pdflatex)
 restricted \write18 enabled.
entering extended mode
(./report.tex
LaTeX2e <2025-06-01> patch level 1
L3 programming layer <2025-08-13>
(/usr/local/texlive/2025/texmf-dist/tex/latex/base/article.cls
Document Class: article 2025/01/22 v1.4n Standard LaTeX document class
(/usr/local/texlive/2025/texmf-dist/tex/latex/base/size11.clo))
(/usr/local/texlive/2025/texmf-dist/tex/latex/geometry/geometry.sty
(/usr/local/texlive/2025/texmf-dist/tex/latex/graphics/keyval.sty)
(/usr/local/texlive/2025/texmf-dist/tex/generic/iftex/ifvtex.sty
(/usr/local/texlive/2025/texmf-dist/tex/generic/iftex/iftex.sty)))
(/usr/local/texlive/2025/texmf-dist/tex/latex/graphics/graphicx.sty
(/usr/local/texlive/2025/texmf-dist/tex/latex/graphics/graphics.sty
(/usr/local/texlive/2025/texmf-dist/tex/latex/graphics/trig.sty)
(/usr/local/texlive/2025/texmf-dist/tex/latex/graphics-cfg/graphics.cfg)
(/usr/local/texlive/2025/texmf-dist/tex/latex/graphics-def/pdftex.def)))
(/usr/local/texlive/2025/texmf-dist/tex/latex/booktabs/booktabs.sty)
(/usr/local/texlive/2025/texmf-dist/tex/latex/amsmath/amsmath.sty
For additional information on amsmath, use the `?' option.
(/usr/local/texlive/2025/texmf-dist/tex/latex/amsmath/amstext.sty
(/usr/local/texlive/2025/texmf-dist/tex/latex/amsmath/amsgen.sty))
(/usr/local/texlive/2025/texmf-dist/tex/latex/amsmath/amsbsy.sty)
(/usr/local/texlive/2025/texmf-dist/tex/latex/amsmath/amsopn.sty))
(/usr/local/texlive/2025/texmf-dist/tex/latex/siunitx/siunitx.sty
(/usr/local/texlive/2025/texmf-dist/tex/latex/translations/translations.sty
(/usr/local/texlive/2025/texmf-dist/tex/latex/etoolbox/etoolbox.sty)
(/usr/local/texlive/2025/texmf-dist/tex/generic/pdftexcmds/pdftexcmds.sty
(/usr/local/texlive/2025/texmf-dist/tex/generic/infwarerr/infwarerr.sty)
(/usr/local/texlive/2025/texmf-dist/tex/generic/ltxcmds/ltxcmds.sty)))
(/usr/local/texlive/2025/texmf-dist/tex/latex/tools/array.sty))
(/usr/local/texlive/2025/texmf-dist/tex/latex/microtype/microtype.sty
(/usr/local/texlive/2025/texmf-dist/tex/latex/microtype/microtype-pdftex.def)
(/usr/local/texlive/2025/texmf-dist/tex/latex/microtype/microtype.cfg))
(/usr/local/texlive/2025/texmf-dist/tex/latex/underscore/underscore.sty)
==> First Aid for underscore.sty applied!
(/usr/local/texlive/2025/texmf-dist/tex/latex/firstaid/underscore-ltx.sty)
(/usr/local/texlive/2025/texmf-dist/tex/latex/caption/caption.sty
(/usr/local/texlive/2025/texmf-dist/tex/latex/caption/caption3.sty))
(/usr/local/texlive/2025/texmf-dist/tex/latex/caption/subcaption.sty)
(/usr/local/texlive/2025/texmf-dist/tex/latex/hyperref/hyperref.sty
(/usr/local/texlive/2025/texmf-dist/tex/latex/kvsetkeys/kvsetkeys.sty)
(/usr/local/texlive/2025/texmf-dist/tex/generic/kvdefinekeys/kvdefinekeys.sty)
(/usr/local/texlive/2025/texmf-dist/tex/generic/pdfescape/pdfescape.sty)
(/usr/local/texlive/2025/texmf-dist/tex/latex/hycolor/hycolor.sty)
(/usr/local/texlive/2025/texmf-dist/tex/latex/hyperref/nameref.sty
(/usr/local/texlive/2025/texmf-dist/tex/latex/refcount/refcount.sty)
(/usr/local/texlive/2025/texmf-dist/tex/generic/gettitlestring/gettitlestring.s
ty (/usr/local/texlive/2025/texmf-dist/tex/latex/kvoptions/kvoptions.sty)))
(/usr/local/texlive/2025/texmf-dist/tex/generic/stringenc/stringenc.sty)
(/usr/local/texlive/2025/texmf-dist/tex/latex/hyperref/pd1enc.def)
(/usr/local/texlive/2025/texmf-dist/tex/generic/intcalc/intcalc.sty)
(/usr/local/texlive/2025/texmf-dist/tex/latex/hyperref/puenc.def)
(/usr/local/texlive/2025/texmf-dist/tex/latex/url/url.sty)
(/usr/local/texlive/2025/texmf-dist/tex/generic/bitset/bitset.sty
(/usr/local/texlive/2025/texmf-dist/tex/generic/bigintcalc/bigintcalc.sty)))
(/usr/local/texlive/2025/texmf-dist/tex/latex/hyperref/hpdftex.def
(/usr/local/texlive/2025/texmf-dist/tex/latex/rerunfilecheck/rerunfilecheck.sty

(/usr/local/texlive/2025/texmf-dist/tex/generic/uniquecounter/uniquecounter.sty
))) (./tables/captions.tex)
(/usr/local/texlive/2025/texmf-dist/tex/latex/graphics/color.sty
(/usr/local/texlive/2025/texmf-dist/tex/latex/graphics-cfg/color.cfg)
(/usr/local/texlive/2025/texmf-dist/tex/latex/graphics/mathcolor.ltx))
(/usr/local/texlive/2025/texmf-dist/tex/latex/l3backend/l3backend-pdftex.def)
(build/report.aux)
*geometry* driver: auto-detecting
*geometry* detected driver: pdftex
(/usr/local/texlive/2025/texmf-dist/tex/context/base/mkii/supp-pdf.mkii
[Loading MPS to PDF converter (version 2006.09.02).]
) (/usr/local/texlive/2025/texmf-dist/tex/latex/epstopdf-pkg/epstopdf-base.sty
(/usr/local/texlive/2025/texmf-dist/tex/latex/latexconfig/epstopdf-sys.cfg))
(/usr/local/texlive/2025/texmf-dist/tex/latex/translations/translations-basic-d
ictionary-english.trsl)
(/usr/local/texlive/2025/texmf-dist/tex/latex/microtype/mt-cmr.cfg)
(build/report.out) (build/report.out)
[1{/usr/local/texlive/2025/texmf-var/fonts/map/pdftex/updmap/pdftex.map}]
(./tables/case_setup.tex) (./tables/case_settings.tex)
Overfull \hbox (13.44687pt too wide) in paragraph at lines 1--87
 [][] 
(./tables/rom_settings.tex) (./tables/pod_energy.tex) (./tables/force_stats.tex
)
[2]
Overfull \hbox (27.01678pt too wide) in paragraph at lines 113--114
\OT1/cmr/m/n/10.95 (-20) The fol-low-ing checks are gen-er-ated au-to-mat-i-cal
ly and are in-tended to catch com-mon force/normalization
(./tables/force_stats_checks_low.tex) (./tables/force_stats_checks_high.tex)
(./tables/summary_low.tex
[3{/usr/local/texlive/2025/texmf-dist/fonts/enc/dvips/cm-super/cm-super-ts1.enc
}]) (./tables/summary_high.tex
[4]
[5 <./figures/low_svd_U.png> <./figures/low_svd_p.png>]
[6 <./figures/low_energy_U.png> <./figures/low_energy_p.png>]
[7 <./figures/low_err_rom_only.png> <./figures/low_timeline.png>]
[8 <./figures/low_err_validate.png> <./figures/low_speed.png>]
[9 <./figures/low_forces.png> <./figures/low_coeffs.png>])
[10 <./figures/low_cl_fft.png>]
[11 <./figures/high_svd_U.png>]
[12 <./figures/high_svd_p.png> <./figures/high_energy_U.png>]
[13 <./figures/high_energy_p.png> <./figures/high_timeline.png>]
[14 <./figures/high_err_validate.png> <./figures/high_speed.png>]
[15 <./figures/high_forces.png> <./figures/high_coeffs.png>]
[16 <./figures/high_cl_fft.png> <./figures/mesh_low.png (PNG copy)> <./figures/
mesh_low_zoom.png (PNG copy)>]
Overfull \hbox (34.69354pt too wide) in paragraph at lines 315--316
[]\OT1/cmr/m/n/10.95 (-20) Environment: \OT1/cmtt/m/n/10.95 cd /home/kalel1938/
Documents/codex_-projects/adaptive_-model_-reduction\OT1/cmr/m/n/10.95 (-20) ;

Overfull \hbox (17.9837pt too wide) in paragraph at lines 315--316
\OT1/cmtt/m/n/10.95 . /opt/openfoam13/etc/bashrc\OT1/cmr/m/n/10.95 (-20) ; \OT1
/cmtt/m/n/10.95 source /home/kalel1938/venvs/myenv/bin/activate\OT1/cmr/m/n/10.
95 (-20) . 

Overfull \hbox (45.18578pt too wide) in paragraph at lines 318--319
[]\OT1/cmr/m/n/10.95 (-20) Post-process: \OT1/cmtt/m/n/10.95 bash scripts/10_-p
ostprocess_-coeffs_-low.sh\OT1/cmr/m/n/10.95 (-20) ; \OT1/cmtt/m/n/10.95 bash s
cripts/11_-postprocess_-

[17 <./figures/U_low_t0.png> <./figures/U_low_tmid.png> <./figures/U_low_tend.p
ng> <./figures/p_low_tmid.png> <./figures/low_vort_mid.png> <./figures/fom_vs_r
om_Umag_mid_low_clean.png>] (build/report.bbl
[18 <./figures/fom_vs_rom_vortZ_mid_low.png> <./figures/mode1_U.png> <./figures
/mode2_U.png> <./figures/mode3_U.png>])
[19 <./figures/mesh_high.png (PNG copy)> <./figures/mesh_high_zoom.png (PNG cop
y)> <./figures/U_high_tmid.png> <./figures/high_vort_mid.png> <./figures/fom_vs
_rom_Umag_mid_high_clean.png>] (build/report.aux)

LaTeX Warning: Label(s) may have changed. Rerun to get cross-references right.


Package rerunfilecheck Warning: File `report.out' has changed.
(rerunfilecheck)                Rerun to get outlines right
(rerunfilecheck)                or use package `bookmark'.

 )
(see the transcript file for additional information)
pdfTeX warning (dest): name{section.10} has been referenced but does not exist,
 replaced by a fixed one


pdfTeX warning (dest): name{section.9} has been referenced but does not exist, 
replaced by a fixed one


pdfTeX warning (dest): name{section.8} has been referenced but does not exist, 
replaced by a fixed one


pdfTeX warning (dest): name{subsection.6.2} has been referenced but does not ex
ist, replaced by a fixed one


pdfTeX warning (dest): name{subsection.6.1} has been referenced but does not ex
ist, replaced by a fixed one

</usr/local/texlive/2025/texmf-dist/fonts/type1/public/amsfonts/cm/cmbx10.pfb><
/usr/local/texlive/2025/texmf-dist/fonts/type1/public/amsfonts/cm/cmbx12.pfb></
usr/local/texlive/2025/texmf-dist/fonts/type1/public/amsfonts/cm/cmbx9.pfb></us
r/local/texlive/2025/texmf-dist/fonts/type1/public/amsfonts/cm/cmmi10.pfb></usr
/local/texlive/2025/texmf-dist/fonts/type1/public/amsfonts/cm/cmmi7.pfb></usr/l
ocal/texlive/2025/texmf-dist/fonts/type1/public/amsfonts/cm/cmmi8.pfb></usr/loc
al/texlive/2025/texmf-dist/fonts/type1/public/amsfonts/cm/cmmi9.pfb></usr/local
/texlive/2025/texmf-dist/fonts/type1/public/amsfonts/cm/cmr10.pfb></usr/local/t
exlive/2025/texmf-dist/fonts/type1/public/amsfonts/cm/cmr12.pfb></usr/local/tex
live/2025/texmf-dist/fonts/type1/public/amsfonts/cm/cmr17.pfb></usr/local/texli
ve/2025/texmf-dist/fonts/type1/public/amsfonts/cm/cmr7.pfb></usr/local/texlive/
2025/texmf-dist/fonts/type1/public/amsfonts/cm/cmr8.pfb></usr/local/texlive/202
5/texmf-dist/fonts/type1/public/amsfonts/cm/cmr9.pfb></usr/local/texlive/2025/t
exmf-dist/fonts/type1/public/amsfonts/cm/cmsy10.pfb></usr/local/texlive/2025/te
xmf-dist/fonts/type1/public/amsfonts/cm/cmsy8.pfb></usr/local/texlive/2025/texm
f-dist/fonts/type1/public/amsfonts/cm/cmti10.pfb></usr/local/texlive/2025/texmf
-dist/fonts/type1/public/amsfonts/cm/cmtt10.pfb></usr/local/texlive/2025/texmf-
dist/fonts/type1/public/cm-super/sfrm1095.pfb>
Output written on build/report.pdf (19 pages, 3554252 bytes).
Transcript written on build/report.log.
This is BibTeX, Version 0.99d (TeX Live 2025)
The top-level auxiliary file: build/report.aux
The style file: plain.bst
Database file #1: report.bib
Database file #2: manual.bib
This is pdfTeX, Version 3.141592653-2.6-1.40.28 (TeX Live 2025) (preloaded format=pdflatex)
 restricted \write18 enabled.
entering extended mode
(./report.tex
LaTeX2e <2025-06-01> patch level 1
L3 programming layer <2025-08-13>
(/usr/local/texlive/2025/texmf-dist/tex/latex/base/article.cls
Document Class: article 2025/01/22 v1.4n Standard LaTeX document class
(/usr/local/texlive/2025/texmf-dist/tex/latex/base/size11.clo))
(/usr/local/texlive/2025/texmf-dist/tex/latex/geometry/geometry.sty
(/usr/local/texlive/2025/texmf-dist/tex/latex/graphics/keyval.sty)
(/usr/local/texlive/2025/texmf-dist/tex/generic/iftex/ifvtex.sty
(/usr/local/texlive/2025/texmf-dist/tex/generic/iftex/iftex.sty)))
(/usr/local/texlive/2025/texmf-dist/tex/latex/graphics/graphicx.sty
(/usr/local/texlive/2025/texmf-dist/tex/latex/graphics/graphics.sty
(/usr/local/texlive/2025/texmf-dist/tex/latex/graphics/trig.sty)
(/usr/local/texlive/2025/texmf-dist/tex/latex/graphics-cfg/graphics.cfg)
(/usr/local/texlive/2025/texmf-dist/tex/latex/graphics-def/pdftex.def)))
(/usr/local/texlive/2025/texmf-dist/tex/latex/booktabs/booktabs.sty)
(/usr/local/texlive/2025/texmf-dist/tex/latex/amsmath/amsmath.sty
For additional information on amsmath, use the `?' option.
(/usr/local/texlive/2025/texmf-dist/tex/latex/amsmath/amstext.sty
(/usr/local/texlive/2025/texmf-dist/tex/latex/amsmath/amsgen.sty))
(/usr/local/texlive/2025/texmf-dist/tex/latex/amsmath/amsbsy.sty)
(/usr/local/texlive/2025/texmf-dist/tex/latex/amsmath/amsopn.sty))
(/usr/local/texlive/2025/texmf-dist/tex/latex/siunitx/siunitx.sty
(/usr/local/texlive/2025/texmf-dist/tex/latex/translations/translations.sty
(/usr/local/texlive/2025/texmf-dist/tex/latex/etoolbox/etoolbox.sty)
(/usr/local/texlive/2025/texmf-dist/tex/generic/pdftexcmds/pdftexcmds.sty
(/usr/local/texlive/2025/texmf-dist/tex/generic/infwarerr/infwarerr.sty)
(/usr/local/texlive/2025/texmf-dist/tex/generic/ltxcmds/ltxcmds.sty)))
(/usr/local/texlive/2025/texmf-dist/tex/latex/tools/array.sty))
(/usr/local/texlive/2025/texmf-dist/tex/latex/microtype/microtype.sty
(/usr/local/texlive/2025/texmf-dist/tex/latex/microtype/microtype-pdftex.def)
(/usr/local/texlive/2025/texmf-dist/tex/latex/microtype/microtype.cfg))
(/usr/local/texlive/2025/texmf-dist/tex/latex/underscore/underscore.sty)
==> First Aid for underscore.sty applied!
(/usr/local/texlive/2025/texmf-dist/tex/latex/firstaid/underscore-ltx.sty)
(/usr/local/texlive/2025/texmf-dist/tex/latex/caption/caption.sty
(/usr/local/texlive/2025/texmf-dist/tex/latex/caption/caption3.sty))
(/usr/local/texlive/2025/texmf-dist/tex/latex/caption/subcaption.sty)
(/usr/local/texlive/2025/texmf-dist/tex/latex/hyperref/hyperref.sty
(/usr/local/texlive/2025/texmf-dist/tex/latex/kvsetkeys/kvsetkeys.sty)
(/usr/local/texlive/2025/texmf-dist/tex/generic/kvdefinekeys/kvdefinekeys.sty)
(/usr/local/texlive/2025/texmf-dist/tex/generic/pdfescape/pdfescape.sty)
(/usr/local/texlive/2025/texmf-dist/tex/latex/hycolor/hycolor.sty)
(/usr/local/texlive/2025/texmf-dist/tex/latex/hyperref/nameref.sty
(/usr/local/texlive/2025/texmf-dist/tex/latex/refcount/refcount.sty)
(/usr/local/texlive/2025/texmf-dist/tex/generic/gettitlestring/gettitlestring.s
ty (/usr/local/texlive/2025/texmf-dist/tex/latex/kvoptions/kvoptions.sty)))
(/usr/local/texlive/2025/texmf-dist/tex/generic/stringenc/stringenc.sty)
(/usr/local/texlive/2025/texmf-dist/tex/latex/hyperref/pd1enc.def)
(/usr/local/texlive/2025/texmf-dist/tex/generic/intcalc/intcalc.sty)
(/usr/local/texlive/2025/texmf-dist/tex/latex/hyperref/puenc.def)
(/usr/local/texlive/2025/texmf-dist/tex/latex/url/url.sty)
(/usr/local/texlive/2025/texmf-dist/tex/generic/bitset/bitset.sty
(/usr/local/texlive/2025/texmf-dist/tex/generic/bigintcalc/bigintcalc.sty)))
(/usr/local/texlive/2025/texmf-dist/tex/latex/hyperref/hpdftex.def
(/usr/local/texlive/2025/texmf-dist/tex/latex/rerunfilecheck/rerunfilecheck.sty

(/usr/local/texlive/2025/texmf-dist/tex/generic/uniquecounter/uniquecounter.sty
))) (./tables/captions.tex)
(/usr/local/texlive/2025/texmf-dist/tex/latex/graphics/color.sty
(/usr/local/texlive/2025/texmf-dist/tex/latex/graphics-cfg/color.cfg)
(/usr/local/texlive/2025/texmf-dist/tex/latex/graphics/mathcolor.ltx))
(/usr/local/texlive/2025/texmf-dist/tex/latex/l3backend/l3backend-pdftex.def)
(build/report.aux)
*geometry* driver: auto-detecting
*geometry* detected driver: pdftex
(/usr/local/texlive/2025/texmf-dist/tex/context/base/mkii/supp-pdf.mkii
[Loading MPS to PDF converter (version 2006.09.02).]
) (/usr/local/texlive/2025/texmf-dist/tex/latex/epstopdf-pkg/epstopdf-base.sty
(/usr/local/texlive/2025/texmf-dist/tex/latex/latexconfig/epstopdf-sys.cfg))
(/usr/local/texlive/2025/texmf-dist/tex/latex/translations/translations-basic-d
ictionary-english.trsl)
(/usr/local/texlive/2025/texmf-dist/tex/latex/microtype/mt-cmr.cfg)
(build/report.out) (build/report.out)
[1{/usr/local/texlive/2025/texmf-var/fonts/map/pdftex/updmap/pdftex.map}]
(./tables/case_setup.tex) (./tables/case_settings.tex)
Overfull \hbox (13.44687pt too wide) in paragraph at lines 1--87
 [][] 
(./tables/rom_settings.tex) (./tables/pod_energy.tex) (./tables/force_stats.tex
)
[2]
Overfull \hbox (27.01678pt too wide) in paragraph at lines 113--114
\OT1/cmr/m/n/10.95 (-20) The fol-low-ing checks are gen-er-ated au-to-mat-i-cal
ly and are in-tended to catch com-mon force/normalization
(./tables/force_stats_checks_low.tex) (./tables/force_stats_checks_high.tex)
(./tables/summary_low.tex
[3{/usr/local/texlive/2025/texmf-dist/fonts/enc/dvips/cm-super/cm-super-ts1.enc
}]) (./tables/summary_high.tex
[4]
[5 <./figures/low_svd_U.png> <./figures/low_svd_p.png>]
[6 <./figures/low_energy_U.png> <./figures/low_energy_p.png>]
[7 <./figures/low_err_rom_only.png> <./figures/low_timeline.png>]
[8 <./figures/low_err_validate.png> <./figures/low_speed.png>]
[9 <./figures/low_forces.png> <./figures/low_coeffs.png>])
[10 <./figures/low_cl_fft.png>]
[11 <./figures/high_svd_U.png>]
[12 <./figures/high_svd_p.png> <./figures/high_energy_U.png>]
[13 <./figures/high_energy_p.png> <./figures/high_timeline.png>]
[14 <./figures/high_err_validate.png> <./figures/high_speed.png>]
[15 <./figures/high_forces.png> <./figures/high_coeffs.png>]
[16 <./figures/high_cl_fft.png> <./figures/mesh_low.png (PNG copy)> <./figures/
mesh_low_zoom.png (PNG copy)>]
Overfull \hbox (34.69354pt too wide) in paragraph at lines 315--316
[]\OT1/cmr/m/n/10.95 (-20) Environment: \OT1/cmtt/m/n/10.95 cd /home/kalel1938/
Documents/codex_-projects/adaptive_-model_-reduction\OT1/cmr/m/n/10.95 (-20) ;

Overfull \hbox (17.9837pt too wide) in paragraph at lines 315--316
\OT1/cmtt/m/n/10.95 . /opt/openfoam13/etc/bashrc\OT1/cmr/m/n/10.95 (-20) ; \OT1
/cmtt/m/n/10.95 source /home/kalel1938/venvs/myenv/bin/activate\OT1/cmr/m/n/10.
95 (-20) . 

Overfull \hbox (45.18578pt too wide) in paragraph at lines 318--319
[]\OT1/cmr/m/n/10.95 (-20) Post-process: \OT1/cmtt/m/n/10.95 bash scripts/10_-p
ostprocess_-coeffs_-low.sh\OT1/cmr/m/n/10.95 (-20) ; \OT1/cmtt/m/n/10.95 bash s
cripts/11_-postprocess_-

[17 <./figures/U_low_t0.png> <./figures/U_low_tmid.png> <./figures/U_low_tend.p
ng> <./figures/p_low_tmid.png> <./figures/low_vort_mid.png> <./figures/fom_vs_r
om_Umag_mid_low_clean.png>] (build/report.bbl
[18 <./figures/fom_vs_rom_vortZ_mid_low.png> <./figures/mode1_U.png> <./figures
/mode2_U.png> <./figures/mode3_U.png>])
[19 <./figures/mesh_high.png (PNG copy)> <./figures/mesh_high_zoom.png (PNG cop
y)> <./figures/U_high_tmid.png> <./figures/high_vort_mid.png> <./figures/fom_vs
_rom_Umag_mid_high_clean.png>] (build/report.aux) )
(see the transcript file for additional information)</usr/local/texlive/2025/te
xmf-dist/fonts/type1/public/amsfonts/cm/cmbx10.pfb></usr/local/texlive/2025/tex
mf-dist/fonts/type1/public/amsfonts/cm/cmbx12.pfb></usr/local/texlive/2025/texm
f-dist/fonts/type1/public/amsfonts/cm/cmbx9.pfb></usr/local/texlive/2025/texmf-
dist/fonts/type1/public/amsfonts/cm/cmmi10.pfb></usr/local/texlive/2025/texmf-d
ist/fonts/type1/public/amsfonts/cm/cmmi7.pfb></usr/local/texlive/2025/texmf-dis
t/fonts/type1/public/amsfonts/cm/cmmi8.pfb></usr/local/texlive/2025/texmf-dist/
fonts/type1/public/amsfonts/cm/cmmi9.pfb></usr/local/texlive/2025/texmf-dist/fo
nts/type1/public/amsfonts/cm/cmr10.pfb></usr/local/texlive/2025/texmf-dist/font
s/type1/public/amsfonts/cm/cmr12.pfb></usr/local/texlive/2025/texmf-dist/fonts/
type1/public/amsfonts/cm/cmr17.pfb></usr/local/texlive/2025/texmf-dist/fonts/ty
pe1/public/amsfonts/cm/cmr7.pfb></usr/local/texlive/2025/texmf-dist/fonts/type1
/public/amsfonts/cm/cmr8.pfb></usr/local/texlive/2025/texmf-dist/fonts/type1/pu
blic/amsfonts/cm/cmr9.pfb></usr/local/texlive/2025/texmf-dist/fonts/type1/publi
c/amsfonts/cm/cmsy10.pfb></usr/local/texlive/2025/texmf-dist/fonts/type1/public
/amsfonts/cm/cmsy8.pfb></usr/local/texlive/2025/texmf-dist/fonts/type1/public/a
msfonts/cm/cmti10.pfb></usr/local/texlive/2025/texmf-dist/fonts/type1/public/am
sfonts/cm/cmtt10.pfb></usr/local/texlive/2025/texmf-dist/fonts/type1/public/cm-
super/sfrm1095.pfb>
Output written on build/report.pdf (19 pages, 3554468 bytes).
Transcript written on build/report.log.
This is pdfTeX, Version 3.141592653-2.6-1.40.28 (TeX Live 2025) (preloaded format=pdflatex)
 restricted \write18 enabled.
entering extended mode
(./report.tex
LaTeX2e <2025-06-01> patch level 1
L3 programming layer <2025-08-13>
(/usr/local/texlive/2025/texmf-dist/tex/latex/base/article.cls
Document Class: article 2025/01/22 v1.4n Standard LaTeX document class
(/usr/local/texlive/2025/texmf-dist/tex/latex/base/size11.clo))
(/usr/local/texlive/2025/texmf-dist/tex/latex/geometry/geometry.sty
(/usr/local/texlive/2025/texmf-dist/tex/latex/graphics/keyval.sty)
(/usr/local/texlive/2025/texmf-dist/tex/generic/iftex/ifvtex.sty
(/usr/local/texlive/2025/texmf-dist/tex/generic/iftex/iftex.sty)))
(/usr/local/texlive/2025/texmf-dist/tex/latex/graphics/graphicx.sty
(/usr/local/texlive/2025/texmf-dist/tex/latex/graphics/graphics.sty
(/usr/local/texlive/2025/texmf-dist/tex/latex/graphics/trig.sty)
(/usr/local/texlive/2025/texmf-dist/tex/latex/graphics-cfg/graphics.cfg)
(/usr/local/texlive/2025/texmf-dist/tex/latex/graphics-def/pdftex.def)))
(/usr/local/texlive/2025/texmf-dist/tex/latex/booktabs/booktabs.sty)
(/usr/local/texlive/2025/texmf-dist/tex/latex/amsmath/amsmath.sty
For additional information on amsmath, use the `?' option.
(/usr/local/texlive/2025/texmf-dist/tex/latex/amsmath/amstext.sty
(/usr/local/texlive/2025/texmf-dist/tex/latex/amsmath/amsgen.sty))
(/usr/local/texlive/2025/texmf-dist/tex/latex/amsmath/amsbsy.sty)
(/usr/local/texlive/2025/texmf-dist/tex/latex/amsmath/amsopn.sty))
(/usr/local/texlive/2025/texmf-dist/tex/latex/siunitx/siunitx.sty
(/usr/local/texlive/2025/texmf-dist/tex/latex/translations/translations.sty
(/usr/local/texlive/2025/texmf-dist/tex/latex/etoolbox/etoolbox.sty)
(/usr/local/texlive/2025/texmf-dist/tex/generic/pdftexcmds/pdftexcmds.sty
(/usr/local/texlive/2025/texmf-dist/tex/generic/infwarerr/infwarerr.sty)
(/usr/local/texlive/2025/texmf-dist/tex/generic/ltxcmds/ltxcmds.sty)))
(/usr/local/texlive/2025/texmf-dist/tex/latex/tools/array.sty))
(/usr/local/texlive/2025/texmf-dist/tex/latex/microtype/microtype.sty
(/usr/local/texlive/2025/texmf-dist/tex/latex/microtype/microtype-pdftex.def)
(/usr/local/texlive/2025/texmf-dist/tex/latex/microtype/microtype.cfg))
(/usr/local/texlive/2025/texmf-dist/tex/latex/underscore/underscore.sty)
==> First Aid for underscore.sty applied!
(/usr/local/texlive/2025/texmf-dist/tex/latex/firstaid/underscore-ltx.sty)
(/usr/local/texlive/2025/texmf-dist/tex/latex/caption/caption.sty
(/usr/local/texlive/2025/texmf-dist/tex/latex/caption/caption3.sty))
(/usr/local/texlive/2025/texmf-dist/tex/latex/caption/subcaption.sty)
(/usr/local/texlive/2025/texmf-dist/tex/latex/hyperref/hyperref.sty
(/usr/local/texlive/2025/texmf-dist/tex/latex/kvsetkeys/kvsetkeys.sty)
(/usr/local/texlive/2025/texmf-dist/tex/generic/kvdefinekeys/kvdefinekeys.sty)
(/usr/local/texlive/2025/texmf-dist/tex/generic/pdfescape/pdfescape.sty)
(/usr/local/texlive/2025/texmf-dist/tex/latex/hycolor/hycolor.sty)
(/usr/local/texlive/2025/texmf-dist/tex/latex/hyperref/nameref.sty
(/usr/local/texlive/2025/texmf-dist/tex/latex/refcount/refcount.sty)
(/usr/local/texlive/2025/texmf-dist/tex/generic/gettitlestring/gettitlestring.s
ty (/usr/local/texlive/2025/texmf-dist/tex/latex/kvoptions/kvoptions.sty)))
(/usr/local/texlive/2025/texmf-dist/tex/generic/stringenc/stringenc.sty)
(/usr/local/texlive/2025/texmf-dist/tex/latex/hyperref/pd1enc.def)
(/usr/local/texlive/2025/texmf-dist/tex/generic/intcalc/intcalc.sty)
(/usr/local/texlive/2025/texmf-dist/tex/latex/hyperref/puenc.def)
(/usr/local/texlive/2025/texmf-dist/tex/latex/url/url.sty)
(/usr/local/texlive/2025/texmf-dist/tex/generic/bitset/bitset.sty
(/usr/local/texlive/2025/texmf-dist/tex/generic/bigintcalc/bigintcalc.sty)))
(/usr/local/texlive/2025/texmf-dist/tex/latex/hyperref/hpdftex.def
(/usr/local/texlive/2025/texmf-dist/tex/latex/rerunfilecheck/rerunfilecheck.sty

(/usr/local/texlive/2025/texmf-dist/tex/generic/uniquecounter/uniquecounter.sty
))) (./tables/captions.tex)
(/usr/local/texlive/2025/texmf-dist/tex/latex/graphics/color.sty
(/usr/local/texlive/2025/texmf-dist/tex/latex/graphics-cfg/color.cfg)
(/usr/local/texlive/2025/texmf-dist/tex/latex/graphics/mathcolor.ltx))
(/usr/local/texlive/2025/texmf-dist/tex/latex/l3backend/l3backend-pdftex.def)
(build/report.aux)
*geometry* driver: auto-detecting
*geometry* detected driver: pdftex
(/usr/local/texlive/2025/texmf-dist/tex/context/base/mkii/supp-pdf.mkii
[Loading MPS to PDF converter (version 2006.09.02).]
) (/usr/local/texlive/2025/texmf-dist/tex/latex/epstopdf-pkg/epstopdf-base.sty
(/usr/local/texlive/2025/texmf-dist/tex/latex/latexconfig/epstopdf-sys.cfg))
(/usr/local/texlive/2025/texmf-dist/tex/latex/translations/translations-basic-d
ictionary-english.trsl)
(/usr/local/texlive/2025/texmf-dist/tex/latex/microtype/mt-cmr.cfg)
(build/report.out) (build/report.out)
[1{/usr/local/texlive/2025/texmf-var/fonts/map/pdftex/updmap/pdftex.map}]
(./tables/case_setup.tex) (./tables/case_settings.tex)
Overfull \hbox (13.44687pt too wide) in paragraph at lines 1--87
 [][] 
(./tables/rom_settings.tex) (./tables/pod_energy.tex) (./tables/force_stats.tex
)
[2]
Overfull \hbox (27.01678pt too wide) in paragraph at lines 113--114
\OT1/cmr/m/n/10.95 (-20) The fol-low-ing checks are gen-er-ated au-to-mat-i-cal
ly and are in-tended to catch com-mon force/normalization
(./tables/force_stats_checks_low.tex) (./tables/force_stats_checks_high.tex)
(./tables/summary_low.tex
[3{/usr/local/texlive/2025/texmf-dist/fonts/enc/dvips/cm-super/cm-super-ts1.enc
}]) (./tables/summary_high.tex
[4]
[5 <./figures/low_svd_U.png> <./figures/low_svd_p.png>]
[6 <./figures/low_energy_U.png> <./figures/low_energy_p.png>]
[7 <./figures/low_err_rom_only.png> <./figures/low_timeline.png>]
[8 <./figures/low_err_validate.png> <./figures/low_speed.png>]
[9 <./figures/low_forces.png> <./figures/low_coeffs.png>])
[10 <./figures/low_cl_fft.png>]
[11 <./figures/high_svd_U.png>]
[12 <./figures/high_svd_p.png> <./figures/high_energy_U.png>]
[13 <./figures/high_energy_p.png> <./figures/high_timeline.png>]
[14 <./figures/high_err_validate.png> <./figures/high_speed.png>]
[15 <./figures/high_forces.png> <./figures/high_coeffs.png>]
[16 <./figures/high_cl_fft.png> <./figures/mesh_low.png (PNG copy)> <./figures/
mesh_low_zoom.png (PNG copy)>]
Overfull \hbox (34.69354pt too wide) in paragraph at lines 315--316
[]\OT1/cmr/m/n/10.95 (-20) Environment: \OT1/cmtt/m/n/10.95 cd /home/kalel1938/
Documents/codex_-projects/adaptive_-model_-reduction\OT1/cmr/m/n/10.95 (-20) ;

Overfull \hbox (17.9837pt too wide) in paragraph at lines 315--316
\OT1/cmtt/m/n/10.95 . /opt/openfoam13/etc/bashrc\OT1/cmr/m/n/10.95 (-20) ; \OT1
/cmtt/m/n/10.95 source /home/kalel1938/venvs/myenv/bin/activate\OT1/cmr/m/n/10.
95 (-20) . 

Overfull \hbox (45.18578pt too wide) in paragraph at lines 318--319
[]\OT1/cmr/m/n/10.95 (-20) Post-process: \OT1/cmtt/m/n/10.95 bash scripts/10_-p
ostprocess_-coeffs_-low.sh\OT1/cmr/m/n/10.95 (-20) ; \OT1/cmtt/m/n/10.95 bash s
cripts/11_-postprocess_-

[17 <./figures/U_low_t0.png> <./figures/U_low_tmid.png> <./figures/U_low_tend.p
ng> <./figures/p_low_tmid.png> <./figures/low_vort_mid.png> <./figures/fom_vs_r
om_Umag_mid_low_clean.png>] (build/report.bbl
[18 <./figures/fom_vs_rom_vortZ_mid_low.png> <./figures/mode1_U.png> <./figures
/mode2_U.png> <./figures/mode3_U.png>])
[19 <./figures/mesh_high.png (PNG copy)> <./figures/mesh_high_zoom.png (PNG cop
y)> <./figures/U_high_tmid.png> <./figures/high_vort_mid.png> <./figures/fom_vs
_rom_Umag_mid_high_clean.png>] (build/report.aux) )
(see the transcript file for additional information)</usr/local/texlive/2025/te
xmf-dist/fonts/type1/public/amsfonts/cm/cmbx10.pfb></usr/local/texlive/2025/tex
mf-dist/fonts/type1/public/amsfonts/cm/cmbx12.pfb></usr/local/texlive/2025/texm
f-dist/fonts/type1/public/amsfonts/cm/cmbx9.pfb></usr/local/texlive/2025/texmf-
dist/fonts/type1/public/amsfonts/cm/cmmi10.pfb></usr/local/texlive/2025/texmf-d
ist/fonts/type1/public/amsfonts/cm/cmmi7.pfb></usr/local/texlive/2025/texmf-dis
t/fonts/type1/public/amsfonts/cm/cmmi8.pfb></usr/local/texlive/2025/texmf-dist/
fonts/type1/public/amsfonts/cm/cmmi9.pfb></usr/local/texlive/2025/texmf-dist/fo
nts/type1/public/amsfonts/cm/cmr10.pfb></usr/local/texlive/2025/texmf-dist/font
s/type1/public/amsfonts/cm/cmr12.pfb></usr/local/texlive/2025/texmf-dist/fonts/
type1/public/amsfonts/cm/cmr17.pfb></usr/local/texlive/2025/texmf-dist/fonts/ty
pe1/public/amsfonts/cm/cmr7.pfb></usr/local/texlive/2025/texmf-dist/fonts/type1
/public/amsfonts/cm/cmr8.pfb></usr/local/texlive/2025/texmf-dist/fonts/type1/pu
blic/amsfonts/cm/cmr9.pfb></usr/local/texlive/2025/texmf-dist/fonts/type1/publi
c/amsfonts/cm/cmsy10.pfb></usr/local/texlive/2025/texmf-dist/fonts/type1/public
/amsfonts/cm/cmsy8.pfb></usr/local/texlive/2025/texmf-dist/fonts/type1/public/a
msfonts/cm/cmti10.pfb></usr/local/texlive/2025/texmf-dist/fonts/type1/public/am
sfonts/cm/cmtt10.pfb></usr/local/texlive/2025/texmf-dist/fonts/type1/public/cm-
super/sfrm1095.pfb>
Output written on build/report.pdf (19 pages, 3554468 bytes).
Transcript written on build/report.log.
[14:08:55] Report PDF: /home/kalel1938/Documents/codex_projects/adaptive_model_reduction (Copy)/report/build/report.pdf
[14:08:55] Done. Log saved to: /home/kalel1938/Documents/codex_projects/adaptive_model_reduction (Copy)/results/logs/07_make_report_20251229_140814.log
