[14:08:20] Activated venv: /home/kalel1938/venvs/myenv/bin/activate
[14:08:20] Using config: /home/kalel1938/Documents/codex_projects/adaptive_model_reduction (Copy)/rom/configs/low.yaml
[14:08:20] Post-processing force coefficients over reconstructed ROM fields (adaptive case)...
Traceback (most recent call last):
  File "/home/kalel1938/Documents/codex_projects/adaptive_model_reduction (Copy)/rom/python/postprocess_force_coeffs.py", line 225, in <module>
    main()
    ~~~~^^
  File "/home/kalel1938/Documents/codex_projects/adaptive_model_reduction (Copy)/rom/python/postprocess_force_coeffs.py", line 203, in main
    raise RuntimeError(f"foamPostProcess failed (rc={p.returncode}).\nstdout:\n{p.stdout}\nstderr:\n{p.stderr}")
RuntimeError: foamPostProcess failed (rc=-6).
stdout:
/*---------------------------------------------------------------------------*\
  =========                 |
  \\      /  F ield         | OpenFOAM: The Open Source CFD Toolbox
   \\    /   O peration     | Website:  https://openfoam.org
    \\  /    A nd           | Version:  13
     \\/     M anipulation  |
\*---------------------------------------------------------------------------*/
Build  : 13-cde978a97c93
Exec   : foamPostProcess -case /home/kalel1938/Documents/codex_projects/adaptive_model_reduction (Copy)/results/low/adaptive/adaptive_case -solver incompressibleFluid -func forceCoeffsIncompressible -fields (U p) -time 0:10
Date   : Dec 29 2025
Time   : 14:08:20
Host   : "kalel1938-asus"
PID    : 316208

stderr:
fileName::stripInvalid() called for invalid fileName /home/kalel1938/Documents/codex_projects/adaptive_model_reduction(Copy)
    For debug level (= 2) > 1 this is considered fatal

