
[cmd] (cwd=/home/kalel1938/Documents/codex_projects/adaptive_model_reduction/results/low/adaptive/adaptive_case) foamRun -solver incompressibleFluid
/*---------------------------------------------------------------------------*\
  =========                 |
  \\      /  F ield         | OpenFOAM: The Open Source CFD Toolbox
   \\    /   O peration     | Website:  https://openfoam.org
    \\  /    A nd           | Version:  13
     \\/     M anipulation  |
\*---------------------------------------------------------------------------*/
Build  : 13-cde978a97c93
Exec   : foamRun -solver incompressibleFluid
Date   : Dec 19 2025
Time   : 23:31:46
Host   : "kalel1938-asus"
PID    : 918140
I/O    : uncollated
Case   : /home/kalel1938/Documents/codex_projects/adaptive_model_reduction/results/low/adaptive/adaptive_case
nProcs : 1
sigFpe : Enabling floating point exception trapping (FOAM_SIGFPE).
fileModificationChecking : Monitoring run-time modified files using timeStampMaster (fileModificationSkew 10)
allowSystemOperations : Allowing user-supplied system call operations

// * * * * * * * * * * * * * * * * * * * * * * * * * * * * * * * * * * * * * //
Create time

Create mesh for time = 0

Selecting solver incompressibleFluid
Selecting viscosity model constant
Selecting turbulence model type laminar
    Selecting laminar stress model Stokes
No MRF models present

Courant Number mean: 0.000271214 max: 0.00342763

PIMPLE: No convergence criteria found


PIMPLE: No corrector convergence criteria found
        Calculations will do 5 corrections


PIMPLE: Operating solver in transient mode with 5 outer correctors



Starting time loop

volFieldValue UminMag read:
    number of cells = 440
    volume = 73.7426
    operation = minMag

volFieldValue UmaxMag read:
    number of cells = 440
    volume = 73.7426
    operation = maxMag

volFieldValue pMin read:
    number of cells = 440
    volume = 73.7426
    operation = min

volFieldValue pMax read:
    number of cells = 440
    volume = 73.7426
    operation = max

volFieldValue UminMag write:
    minMag(all) of U = 0 at location (0.673676 0.788773 2.22139e-17) in cell 0

volFieldValue UmaxMag write:
    maxMag(all) of U = 0 at location (0.673676 0.788773 2.22139e-17) in cell 0

volFieldValue pMin write:
    min(all) of p = 0 at location (0.673676 0.788773 2.22139e-17) in cell 0

volFieldValue pMax write:
    max(all) of p = 0 at location (0.673676 0.788773 2.22139e-17) in cell 0

Courant Number mean: 0.000271214 max: 0.00342763
Time = 0.005s

PIMPLE: Iteration 1
GAMG:  Solving for p, Initial residual = 1, Final residual = 3.30011e-07, No Iterations 14
time step continuity errors : sum local = 1.79007e-10, global = -7.54934e-11
PIMPLE: Iteration 2
GAMG:  Solving for p, Initial residual = 0.107838, Final residual = 3.11042e-07, No Iterations 9
time step continuity errors : sum local = 6.02585e-09, global = -2.18446e-09
PIMPLE: Iteration 3
GAMG:  Solving for p, Initial residual = 0.0165606, Final residual = 3.60318e-07, No Iterations 8
time step continuity errors : sum local = 7.90394e-09, global = -2.43946e-09
PIMPLE: Iteration 4
GAMG:  Solving for p, Initial residual = 0.00453866, Final residual = 9.97083e-07, No Iterations 5
time step continuity errors : sum local = 2.2494e-08, global = -6.43331e-09
PIMPLE: Iteration 5
GAMG:  Solving for p, Initial residual = 0.000914286, Final residual = 4.4443e-07, No Iterations 5
time step continuity errors : sum local = 1.00801e-08, global = -4.61454e-10, cumulative = -4.61454e-10
ExecutionTime = 0.086006 s  ClockTime = 0 s

Courant Number mean: 0.014577 max: 0.087055
Time = 0.01s

PIMPLE: Iteration 1
GAMG:  Solving for p, Initial residual = 0.0261804, Final residual = 6.8652e-07, No Iterations 10
time step continuity errors : sum local = 1.52674e-08, global = 5.62657e-09
PIMPLE: Iteration 2
GAMG:  Solving for p, Initial residual = 0.538867, Final residual = 3.73789e-07, No Iterations 10
time step continuity errors : sum local = 1.42827e-09, global = 2.2148e-10
PIMPLE: Iteration 3
GAMG:  Solving for p, Initial residual = 0.296008, Final residual = 6.92536e-07, No Iterations 10
time step continuity errors : sum local = 8.51244e-10, global = 2.88008e-10
PIMPLE: Iteration 4
GAMG:  Solving for p, Initial residual = 0.212938, Final residual = 4.0101e-07, No Iterations 9
time step continuity errors : sum local = 1.94605e-10, global = 7.5612e-11
PIMPLE: Iteration 5
GAMG:  Solving for p, Initial residual = 0.0581804, Final residual = 8.15075e-07, No Iterations 8
time step continuity errors : sum local = 2.9281e-10, global = 1.18347e-10, cumulative = -3.43106e-10
ExecutionTime = 0.089221 s  ClockTime = 0 s

Courant Number mean: 0.0145744 max: 0.0861435
Time = 0.015s

PIMPLE: Iteration 1
GAMG:  Solving for p, Initial residual = 0.133683, Final residual = 5.57955e-07, No Iterations 9
time step continuity errors : sum local = 1.6863e-10, global = 3.8525e-11
PIMPLE: Iteration 2
GAMG:  Solving for p, Initial residual = 0.011599, Final residual = 4.15623e-07, No Iterations 7
time step continuity errors : sum local = 1.11334e-10, global = 2.38997e-11
PIMPLE: Iteration 3
GAMG:  Solving for p, Initial residual = 0.00141288, Final residual = 4.18387e-07, No Iterations 5
time step continuity errors : sum local = 1.11643e-10, global = 1.93932e-11
PIMPLE: Iteration 4
GAMG:  Solving for p, Initial residual = 0.000287835, Final residual = 2.92532e-07, No Iterations 4
time step continuity errors : sum local = 7.80375e-11, global = 2.38461e-11
PIMPLE: Iteration 5
GAMG:  Solving for p, Initial residual = 5.80243e-05, Final residual = 2.55758e-07, No Iterations 3
time step continuity errors : sum local = 6.82209e-11, global = 8.6923e-12, cumulative = -3.34414e-10
ExecutionTime = 0.091899 s  ClockTime = 0 s

Courant Number mean: 0.0145717 max: 0.0852421
Time = 0.02s

PIMPLE: Iteration 1
GAMG:  Solving for p, Initial residual = 0.0965725, Final residual = 4.02355e-07, No Iterations 9
time step continuity errors : sum local = 1.004e-10, global = 2.45172e-11
PIMPLE: Iteration 2
GAMG:  Solving for p, Initial residual = 0.00775542, Final residual = 6.18173e-07, No Iterations 6
time step continuity errors : sum local = 1.42495e-10, global = 2.94746e-11
PIMPLE: Iteration 3
GAMG:  Solving for p, Initial residual = 0.000644942, Final residual = 3.55949e-07, No Iterations 5
time step continuity errors : sum local = 8.19467e-11, global = 1.04766e-11
PIMPLE: Iteration 4
GAMG:  Solving for p, Initial residual = 0.00012199, Final residual = 6.49188e-07, No Iterations 3
time step continuity errors : sum local = 1.49453e-10, global = 1.1279e-11
PIMPLE: Iteration 5
GAMG:  Solving for p, Initial residual = 1.84922e-05, Final residual = 5.29163e-07, No Iterations 2
time step continuity errors : sum local = 1.21819e-10, global = -8.47437e-12, cumulative = -3.42888e-10
ExecutionTime = 0.094501 s  ClockTime = 0 s

Courant Number mean: 0.0145697 max: 0.0843606
Time = 0.025s

PIMPLE: Iteration 1
GAMG:  Solving for p, Initial residual = 0.0772824, Final residual = 9.51859e-07, No Iterations 8
time step continuity errors : sum local = 2.09155e-10, global = 2.94039e-11
PIMPLE: Iteration 2
GAMG:  Solving for p, Initial residual = 0.00691786, Final residual = 5.26711e-07, No Iterations 6
time step continuity errors : sum local = 1.09472e-10, global = 2.15749e-11
PIMPLE: Iteration 3
GAMG:  Solving for p, Initial residual = 0.000571436, Final residual = 3.18761e-07, No Iterations 5
time step continuity errors : sum local = 6.61559e-11, global = 7.47152e-12
PIMPLE: Iteration 4
GAMG:  Solving for p, Initial residual = 0.00010989, Final residual = 5.7757e-07, No Iterations 3
time step continuity errors : sum local = 1.1987e-10, global = 1.01235e-11
PIMPLE: Iteration 5
GAMG:  Solving for p, Initial residual = 1.71413e-05, Final residual = 4.88122e-07, No Iterations 2
time step continuity errors : sum local = 1.01304e-10, global = -7.63506e-12, cumulative = -3.50523e-10
ExecutionTime = 0.097211 s  ClockTime = 0 s

Courant Number mean: 0.0145683 max: 0.0834966
Time = 0.03s

PIMPLE: Iteration 1
GAMG:  Solving for p, Initial residual = 0.0621987, Final residual = 7.27852e-07, No Iterations 8
time step continuity errors : sum local = 1.46139e-10, global = 2.12326e-11
PIMPLE: Iteration 2
GAMG:  Solving for p, Initial residual = 0.00612137, Final residual = 3.83825e-07, No Iterations 6
time step continuity errors : sum local = 7.40407e-11, global = 1.45791e-11
PIMPLE: Iteration 3
GAMG:  Solving for p, Initial residual = 0.00049797, Final residual = 2.8838e-07, No Iterations 5
time step continuity errors : sum local = 5.55515e-11, global = 4.69014e-12
PIMPLE: Iteration 4
GAMG:  Solving for p, Initial residual = 9.63233e-05, Final residual = 5.19813e-07, No Iterations 3
time step continuity errors : sum local = 1.00135e-10, global = 1.37053e-12
PIMPLE: Iteration 5
GAMG:  Solving for p, Initial residual = 1.51261e-05, Final residual = 4.50993e-07, No Iterations 2
time step continuity errors : sum local = 8.68765e-11, global = -9.50126e-12, cumulative = -3.60025e-10
ExecutionTime = 0.099849 s  ClockTime = 0 s

Courant Number mean: 0.0145671 max: 0.0826516
Time = 0.035s

PIMPLE: Iteration 1
GAMG:  Solving for p, Initial residual = 0.0499869, Final residual = 5.59994e-07, No Iterations 8
time step continuity errors : sum local = 1.05262e-10, global = 1.63215e-11
PIMPLE: Iteration 2
GAMG:  Solving for p, Initial residual = 0.00547725, Final residual = 3.24674e-07, No Iterations 6
time step continuity errors : sum local = 5.92149e-11, global = 1.10445e-11
PIMPLE: Iteration 3
GAMG:  Solving for p, Initial residual = 0.000440643, Final residual = 2.56845e-07, No Iterations 5
time step continuity errors : sum local = 4.67733e-11, global = 2.53602e-12
PIMPLE: Iteration 4
GAMG:  Solving for p, Initial residual = 8.59373e-05, Final residual = 4.49475e-07, No Iterations 3
time step continuity errors : sum local = 8.18557e-11, global = 3.11069e-12
PIMPLE: Iteration 5
GAMG:  Solving for p, Initial residual = 1.37511e-05, Final residual = 4.06055e-07, No Iterations 2
time step continuity errors : sum local = 7.39474e-11, global = -8.44603e-12, cumulative = -3.68471e-10
ExecutionTime = 0.10248 s  ClockTime = 0 s

Courant Number mean: 0.0145663 max: 0.0823417
Time = 0.04s

PIMPLE: Iteration 1
GAMG:  Solving for p, Initial residual = 0.040909, Final residual = 4.38167e-07, No Iterations 8
time step continuity errors : sum local = 7.82905e-11, global = 1.28818e-11
PIMPLE: Iteration 2
GAMG:  Solving for p, Initial residual = 0.00489018, Final residual = 8.39258e-07, No Iterations 5
time step continuity errors : sum local = 1.46429e-10, global = 2.64212e-11
PIMPLE: Iteration 3
GAMG:  Solving for p, Initial residual = 0.000386668, Final residual = 8.68939e-07, No Iterations 4
time step continuity errors : sum local = 1.51376e-10, global = -3.51915e-12
PIMPLE: Iteration 4
GAMG:  Solving for p, Initial residual = 7.64844e-05, Final residual = 3.99047e-07, No Iterations 3
time step continuity errors : sum local = 6.95193e-11, global = 2.3004e-12
PIMPLE: Iteration 5
GAMG:  Solving for p, Initial residual = 1.21426e-05, Final residual = 3.66615e-07, No Iterations 2
time step continuity errors : sum local = 6.38684e-11, global = -7.30342e-12, cumulative = -3.75774e-10
ExecutionTime = 0.105074 s  ClockTime = 0 s

Courant Number mean: 0.0145656 max: 0.0826616
Time = 0.045s

PIMPLE: Iteration 1
GAMG:  Solving for p, Initial residual = 0.0335033, Final residual = 3.43838e-07, No Iterations 8
time step continuity errors : sum local = 5.89773e-11, global = 1.01958e-11
PIMPLE: Iteration 2
GAMG:  Solving for p, Initial residual = 0.00442302, Final residual = 6.65124e-07, No Iterations 5
time step continuity errors : sum local = 1.11864e-10, global = 2.07467e-11
PIMPLE: Iteration 3
GAMG:  Solving for p, Initial residual = 0.000347189, Final residual = 7.5219e-07, No Iterations 4
time step continuity errors : sum local = 1.26307e-10, global = -6.66047e-12
PIMPLE: Iteration 4
GAMG:  Solving for p, Initial residual = 6.70911e-05, Final residual = 3.4624e-07, No Iterations 3
time step continuity errors : sum local = 5.81424e-11, global = 1.24473e-12
PIMPLE: Iteration 5
GAMG:  Solving for p, Initial residual = 1.09977e-05, Final residual = 3.29247e-07, No Iterations 2
time step continuity errors : sum local = 5.52884e-11, global = -7.29483e-12, cumulative = -3.83069e-10
ExecutionTime = 0.107745 s  ClockTime = 0 s

Courant Number mean: 0.0145651 max: 0.0829733
Time = 0.05s

PIMPLE: Iteration 1
GAMG:  Solving for p, Initial residual = 0.0279479, Final residual = 2.77419e-07, No Iterations 8
time step continuity errors : sum local = 4.59658e-11, global = 8.34895e-12
PIMPLE: Iteration 2
GAMG:  Solving for p, Initial residual = 0.00404432, Final residual = 5.24447e-07, No Iterations 5
time step continuity errors : sum local = 8.54264e-11, global = 1.66487e-11
PIMPLE: Iteration 3
GAMG:  Solving for p, Initial residual = 0.000313332, Final residual = 6.48073e-07, No Iterations 4
time step continuity errors : sum local = 1.05395e-10, global = -8.6783e-12
PIMPLE: Iteration 4
GAMG:  Solving for p, Initial residual = 5.93181e-05, Final residual = 2.92182e-07, No Iterations 3
time step continuity errors : sum local = 4.75186e-11, global = 7.36612e-13
PIMPLE: Iteration 5
GAMG:  Solving for p, Initial residual = 9.91413e-06, Final residual = 2.92399e-07, No Iterations 2
time step continuity errors : sum local = 4.75536e-11, global = -7.06758e-12, cumulative = -3.90137e-10
ExecutionTime = 0.110404 s  ClockTime = 0 s

volFieldValue UminMag write:
    minMag(all) of U = 0.0717506 at location (1.03411 -0.081386 -2.37561e-17) in cell 295

volFieldValue UmaxMag write:
    maxMag(all) of U = 2.77294 at location (0.0876405 -1.11358 -2.06271e-17) in cell 251

volFieldValue pMin write:
    min(all) of p = -3.02586 at location (0.081386 -1.03411 -2.22138e-17) in cell 250

volFieldValue pMax write:
    max(all) of p = 4.25625 at location (-4.59899 -1.37249 0) in cell 420

Courant Number mean: 0.0145646 max: 0.0832738
Time = 0.055s

PIMPLE: Iteration 1
GAMG:  Solving for p, Initial residual = 0.0235496, Final residual = 8.41228e-07, No Iterations 7
time step continuity errors : sum local = 1.35207e-10, global = 2.41917e-11
PIMPLE: Iteration 2
GAMG:  Solving for p, Initial residual = 0.00372854, Final residual = 4.23233e-07, No Iterations 5
time step continuity errors : sum local = 6.70035e-11, global = 1.36541e-11
PIMPLE: Iteration 3
GAMG:  Solving for p, Initial residual = 0.00028672, Final residual = 5.62737e-07, No Iterations 4
time step continuity errors : sum local = 8.89427e-11, global = -9.79523e-12
PIMPLE: Iteration 4
GAMG:  Solving for p, Initial residual = 5.28133e-05, Final residual = 8.9906e-07, No Iterations 2
time step continuity errors : sum local = 1.42106e-10, global = 1.01399e-11
PIMPLE: Iteration 5
GAMG:  Solving for p, Initial residual = 9.31282e-06, Final residual = 3.26671e-07, No Iterations 2
time step continuity errors : sum local = 5.16336e-11, global = -4.93301e-12, cumulative = -3.9507e-10
ExecutionTime = 0.113067 s  ClockTime = 0 s

Courant Number mean: 0.0145641 max: 0.0835621
Time = 0.06s

PIMPLE: Iteration 1
GAMG:  Solving for p, Initial residual = 0.020073, Final residual = 7.04806e-07, No Iterations 7
time step continuity errors : sum local = 1.10241e-10, global = 1.91701e-11
PIMPLE: Iteration 2
GAMG:  Solving for p, Initial residual = 0.00350474, Final residual = 3.56689e-07, No Iterations 5
time step continuity errors : sum local = 5.50434e-11, global = 1.0784e-11
PIMPLE: Iteration 3
GAMG:  Solving for p, Initial residual = 0.00026716, Final residual = 4.91682e-07, No Iterations 4
time step continuity errors : sum local = 7.57527e-11, global = -1.00928e-11
PIMPLE: Iteration 4
GAMG:  Solving for p, Initial residual = 4.72334e-05, Final residual = 7.95073e-07, No Iterations 2
time step continuity errors : sum local = 1.22502e-10, global = 9.95307e-12
PIMPLE: Iteration 5
GAMG:  Solving for p, Initial residual = 8.59409e-06, Final residual = 9.63671e-07, No Iterations 1
time step continuity errors : sum local = 1.48478e-10, global = -3.109e-12, cumulative = -3.98179e-10
ExecutionTime = 0.11572 s  ClockTime = 0 s

Courant Number mean: 0.0145638 max: 0.0838381
Time = 0.065s

PIMPLE: Iteration 1
GAMG:  Solving for p, Initial residual = 0.0174008, Final residual = 5.96072e-07, No Iterations 7
time step continuity errors : sum local = 9.09422e-11, global = 1.52905e-11
PIMPLE: Iteration 2
GAMG:  Solving for p, Initial residual = 0.00333543, Final residual = 3.18509e-07, No Iterations 5
time step continuity errors : sum local = 4.79864e-11, global = 8.47862e-12
PIMPLE: Iteration 3
GAMG:  Solving for p, Initial residual = 0.000254683, Final residual = 4.30892e-07, No Iterations 4
time step continuity errors : sum local = 6.48144e-11, global = -9.63954e-12
PIMPLE: Iteration 4
GAMG:  Solving for p, Initial residual = 4.27179e-05, Final residual = 7.06525e-07, No Iterations 2
time step continuity errors : sum local = 1.0628e-10, global = 1.01723e-11
PIMPLE: Iteration 5
GAMG:  Solving for p, Initial residual = 8.09852e-06, Final residual = 8.72335e-07, No Iterations 1
time step continuity errors : sum local = 1.31222e-10, global = -2.33075e-12, cumulative = -4.00509e-10
ExecutionTime = 0.118417 s  ClockTime = 0 s

Courant Number mean: 0.0145634 max: 0.084102
Time = 0.07s

PIMPLE: Iteration 1
GAMG:  Solving for p, Initial residual = 0.0156168, Final residual = 5.11402e-07, No Iterations 7
time step continuity errors : sum local = 7.61989e-11, global = 1.22402e-11
PIMPLE: Iteration 2
GAMG:  Solving for p, Initial residual = 0.00320183, Final residual = 2.95988e-07, No Iterations 5
time step continuity errors : sum local = 4.35721e-11, global = 7.00966e-12
PIMPLE: Iteration 3
GAMG:  Solving for p, Initial residual = 0.000247261, Final residual = 3.79648e-07, No Iterations 4
time step continuity errors : sum local = 5.57998e-11, global = -8.71492e-12
PIMPLE: Iteration 4
GAMG:  Solving for p, Initial residual = 3.97774e-05, Final residual = 6.31227e-07, No Iterations 2
time step continuity errors : sum local = 9.2781e-11, global = 1.05986e-11
PIMPLE: Iteration 5
GAMG:  Solving for p, Initial residual = 7.747e-06, Final residual = 7.93905e-07, No Iterations 1
time step continuity errors : sum local = 1.16692e-10, global = -1.49022e-12, cumulative = -4.02e-10
ExecutionTime = 0.121074 s  ClockTime = 0 s

Courant Number mean: 0.0145632 max: 0.0843543
Time = 0.075s

PIMPLE: Iteration 1
GAMG:  Solving for p, Initial residual = 0.0142139, Final residual = 4.45895e-07, No Iterations 7
time step continuity errors : sum local = 6.4936e-11, global = 9.95716e-12
PIMPLE: Iteration 2
GAMG:  Solving for p, Initial residual = 0.0031095, Final residual = 2.81158e-07, No Iterations 5
time step continuity errors : sum local = 4.04703e-11, global = 6.48979e-12
PIMPLE: Iteration 3
GAMG:  Solving for p, Initial residual = 0.000242264, Final residual = 3.39781e-07, No Iterations 4
time step continuity errors : sum local = 4.88327e-11, global = -7.80925e-12
PIMPLE: Iteration 4
GAMG:  Solving for p, Initial residual = 3.79929e-05, Final residual = 5.71908e-07, No Iterations 2
time step continuity errors : sum local = 8.21982e-11, global = 1.12071e-11
PIMPLE: Iteration 5
GAMG:  Solving for p, Initial residual = 7.51849e-06, Final residual = 7.35377e-07, No Iterations 1
time step continuity errors : sum local = 1.05693e-10, global = -5.77363e-13, cumulative = -4.02577e-10
ExecutionTime = 0.123733 s  ClockTime = 0 s

Courant Number mean: 0.014563 max: 0.0845959
Time = 0.08s

PIMPLE: Iteration 1
GAMG:  Solving for p, Initial residual = 0.013023, Final residual = 3.94277e-07, No Iterations 7
time step continuity errors : sum local = 5.61645e-11, global = 8.20627e-12
PIMPLE: Iteration 2
GAMG:  Solving for p, Initial residual = 0.00304653, Final residual = 2.72194e-07, No Iterations 5
time step continuity errors : sum local = 3.83418e-11, global = 6.34808e-12
PIMPLE: Iteration 3
GAMG:  Solving for p, Initial residual = 0.000238238, Final residual = 3.1059e-07, No Iterations 4
time step continuity errors : sum local = 4.36834e-11, global = -7.2202e-12
PIMPLE: Iteration 4
GAMG:  Solving for p, Initial residual = 3.68693e-05, Final residual = 5.26225e-07, No Iterations 2
time step continuity errors : sum local = 7.40164e-11, global = 1.18515e-11
PIMPLE: Iteration 5
GAMG:  Solving for p, Initial residual = 7.3566e-06, Final residual = 6.91629e-07, No Iterations 1
time step continuity errors : sum local = 9.72809e-11, global = 3.06239e-13, cumulative = -4.02271e-10
ExecutionTime = 0.126518 s  ClockTime = 0 s

Courant Number mean: 0.0145628 max: 0.0848273
Time = 0.085s

PIMPLE: Iteration 1
GAMG:  Solving for p, Initial residual = 0.0121799, Final residual = 3.55488e-07, No Iterations 7
time step continuity errors : sum local = 4.957e-11, global = 6.85667e-12
PIMPLE: Iteration 2
GAMG:  Solving for p, Initial residual = 0.00299149, Final residual = 2.66873e-07, No Iterations 5
time step continuity errors : sum local = 3.68123e-11, global = 5.88458e-12
PIMPLE: Iteration 3
GAMG:  Solving for p, Initial residual = 0.000235006, Final residual = 9.64517e-07, No Iterations 3
time step continuity errors : sum local = 1.32846e-10, global = -2.21314e-11
PIMPLE: Iteration 4
GAMG:  Solving for p, Initial residual = 3.62522e-05, Final residual = 5.66571e-07, No Iterations 2
time step continuity errors : sum local = 7.80405e-11, global = 5.65512e-12
PIMPLE: Iteration 5
GAMG:  Solving for p, Initial residual = 7.29172e-06, Final residual = 7.02831e-07, No Iterations 1
time step continuity errors : sum local = 9.68089e-11, global = -3.66378e-12, cumulative = -4.05934e-10
ExecutionTime = 0.129191 s  ClockTime = 0 s

Courant Number mean: 0.0145627 max: 0.0850495
Time = 0.09s

PIMPLE: Iteration 1
GAMG:  Solving for p, Initial residual = 0.0115092, Final residual = 3.25569e-07, No Iterations 7
time step continuity errors : sum local = 4.4466e-11, global = 5.85433e-12
PIMPLE: Iteration 2
GAMG:  Solving for p, Initial residual = 0.00294664, Final residual = 2.683e-07, No Iterations 5
time step continuity errors : sum local = 3.62587e-11, global = 4.79433e-12
PIMPLE: Iteration 3
GAMG:  Solving for p, Initial residual = 0.000232756, Final residual = 9.23782e-07, No Iterations 3
time step continuity errors : sum local = 1.24657e-10, global = -1.95481e-11
PIMPLE: Iteration 4
GAMG:  Solving for p, Initial residual = 3.60718e-05, Final residual = 5.3827e-07, No Iterations 2
time step continuity errors : sum local = 7.264e-11, global = 6.69938e-12
PIMPLE: Iteration 5
GAMG:  Solving for p, Initial residual = 7.24143e-06, Final residual = 6.82046e-07, No Iterations 1
time step continuity errors : sum local = 9.20425e-11, global = -2.79258e-12, cumulative = -4.08727e-10
ExecutionTime = 0.131919 s  ClockTime = 0 s

Courant Number mean: 0.0145627 max: 0.0852632
Time = 0.095s

PIMPLE: Iteration 1
GAMG:  Solving for p, Initial residual = 0.0109596, Final residual = 3.02675e-07, No Iterations 7
time step continuity errors : sum local = 4.051e-11, global = 5.15048e-12
PIMPLE: Iteration 2
GAMG:  Solving for p, Initial residual = 0.00291049, Final residual = 2.75781e-07, No Iterations 5
time step continuity errors : sum local = 3.65316e-11, global = 3.20501e-12
PIMPLE: Iteration 3
GAMG:  Solving for p, Initial residual = 0.000231489, Final residual = 9.07709e-07, No Iterations 3
time step continuity errors : sum local = 1.20063e-10, global = -1.76615e-11
PIMPLE: Iteration 4
GAMG:  Solving for p, Initial residual = 3.5991e-05, Final residual = 5.15502e-07, No Iterations 2
time step continuity errors : sum local = 6.81906e-11, global = 7.56351e-12
PIMPLE: Iteration 5
GAMG:  Solving for p, Initial residual = 7.22921e-06, Final residual = 6.69767e-07, No Iterations 1
time step continuity errors : sum local = 8.85965e-11, global = -2.04116e-12, cumulative = -4.10768e-10
ExecutionTime = 0.134615 s  ClockTime = 0 s

Courant Number mean: 0.0145627 max: 0.085469
Time = 0.1s

PIMPLE: Iteration 1
GAMG:  Solving for p, Initial residual = 0.0105369, Final residual = 9.68258e-07, No Iterations 6
time step continuity errors : sum local = 1.27052e-10, global = 2.83092e-11
PIMPLE: Iteration 2
GAMG:  Solving for p, Initial residual = 0.00287848, Final residual = 2.87192e-07, No Iterations 5
time step continuity errors : sum local = 3.73076e-11, global = 2.83581e-12
PIMPLE: Iteration 3
GAMG:  Solving for p, Initial residual = 0.000230522, Final residual = 9.04315e-07, No Iterations 3
time step continuity errors : sum local = 1.17303e-10, global = -1.62423e-11
PIMPLE: Iteration 4
GAMG:  Solving for p, Initial residual = 3.5931e-05, Final residual = 4.93543e-07, No Iterations 2
time step continuity errors : sum local = 6.40251e-11, global = 8.54107e-12
PIMPLE: Iteration 5
GAMG:  Solving for p, Initial residual = 7.21985e-06, Final residual = 6.55979e-07, No Iterations 1
time step continuity errors : sum local = 8.50969e-11, global = -1.18503e-12, cumulative = -4.11953e-10
ExecutionTime = 0.137207 s  ClockTime = 0 s

volFieldValue UminMag write:
    minMag(all) of U = 0.0505349 at location (1.03411 -0.081386 -2.37561e-17) in cell 295

volFieldValue UmaxMag write:
    maxMag(all) of U = 2.84174 at location (0.0876405 -1.11358 -2.06271e-17) in cell 251

volFieldValue pMin write:
    min(all) of p = -3.00213 at location (0.081386 -1.03411 -2.22138e-17) in cell 250

volFieldValue pMax write:
    max(all) of p = 2.35357 at location (-4.59899 -1.37249 0) in cell 420

Courant Number mean: 0.0145628 max: 0.0856676
Time = 0.105s

PIMPLE: Iteration 1
GAMG:  Solving for p, Initial residual = 0.0101497, Final residual = 9.05713e-07, No Iterations 6
time step continuity errors : sum local = 1.16566e-10, global = 2.59895e-11
PIMPLE: Iteration 2
GAMG:  Solving for p, Initial residual = 0.00285105, Final residual = 2.97054e-07, No Iterations 5
time step continuity errors : sum local = 3.78552e-11, global = 1.24602e-12
PIMPLE: Iteration 3
GAMG:  Solving for p, Initial residual = 0.000229557, Final residual = 9.03485e-07, No Iterations 3
time step continuity errors : sum local = 1.1497e-10, global = -1.50644e-11
PIMPLE: Iteration 4
GAMG:  Solving for p, Initial residual = 3.59088e-05, Final residual = 4.74808e-07, No Iterations 2
time step continuity errors : sum local = 6.04249e-11, global = 9.21979e-12
PIMPLE: Iteration 5
GAMG:  Solving for p, Initial residual = 7.20021e-06, Final residual = 6.42716e-07, No Iterations 1
time step continuity errors : sum local = 8.17929e-11, global = -5.67551e-13, cumulative = -4.12521e-10
ExecutionTime = 0.139884 s  ClockTime = 0 s

Courant Number mean: 0.0145629 max: 0.0858595
Time = 0.11s

PIMPLE: Iteration 1
GAMG:  Solving for p, Initial residual = 0.00986125, Final residual = 8.46842e-07, No Iterations 6
time step continuity errors : sum local = 1.06938e-10, global = 2.36199e-11
PIMPLE: Iteration 2
GAMG:  Solving for p, Initial residual = 0.00283009, Final residual = 3.04635e-07, No Iterations 5
time step continuity errors : sum local = 3.80981e-11, global = -2.82178e-13
PIMPLE: Iteration 3
GAMG:  Solving for p, Initial residual = 0.000228506, Final residual = 9.01438e-07, No Iterations 3
time step continuity errors : sum local = 1.12573e-10, global = -1.40214e-11
PIMPLE: Iteration 4
GAMG:  Solving for p, Initial residual = 3.58556e-05, Final residual = 4.58635e-07, No Iterations 2
time step continuity errors : sum local = 5.728e-11, global = 9.83089e-12
PIMPLE: Iteration 5
GAMG:  Solving for p, Initial residual = 7.18243e-06, Final residual = 6.29954e-07, No Iterations 1
time step continuity errors : sum local = 7.86762e-11, global = -1.9472e-15, cumulative = -4.12523e-10
ExecutionTime = 0.142513 s  ClockTime = 0 s

Courant Number mean: 0.014563 max: 0.0860453
Time = 0.115s

PIMPLE: Iteration 1
GAMG:  Solving for p, Initial residual = 0.00960622, Final residual = 7.88457e-07, No Iterations 6
time step continuity errors : sum local = 9.77319e-11, global = 2.11335e-11
PIMPLE: Iteration 2
GAMG:  Solving for p, Initial residual = 0.0028104, Final residual = 3.10059e-07, No Iterations 5
time step continuity errors : sum local = 3.80706e-11, global = -1.66864e-12
PIMPLE: Iteration 3
GAMG:  Solving for p, Initial residual = 0.000228006, Final residual = 8.96731e-07, No Iterations 3
time step continuity errors : sum local = 1.09948e-10, global = -1.30523e-11
PIMPLE: Iteration 4
GAMG:  Solving for p, Initial residual = 3.57902e-05, Final residual = 4.44849e-07, No Iterations 2
time step continuity errors : sum local = 5.45472e-11, global = 1.03875e-11
PIMPLE: Iteration 5
GAMG:  Solving for p, Initial residual = 7.15771e-06, Final residual = 6.16811e-07, No Iterations 1
time step continuity errors : sum local = 7.5633e-11, global = 5.21561e-13, cumulative = -4.12001e-10
ExecutionTime = 0.1451 s  ClockTime = 0 s

Courant Number mean: 0.0145632 max: 0.0862254
Time = 0.12s

PIMPLE: Iteration 1
GAMG:  Solving for p, Initial residual = 0.00939067, Final residual = 7.31839e-07, No Iterations 6
time step continuity errors : sum local = 8.90825e-11, global = 1.85766e-11
PIMPLE: Iteration 2
GAMG:  Solving for p, Initial residual = 0.00279097, Final residual = 3.14057e-07, No Iterations 5
time step continuity errors : sum local = 3.78775e-11, global = -2.86888e-12
PIMPLE: Iteration 3
GAMG:  Solving for p, Initial residual = 0.000228251, Final residual = 8.89237e-07, No Iterations 3
time step continuity errors : sum local = 1.07099e-10, global = -1.21318e-11
PIMPLE: Iteration 4
GAMG:  Solving for p, Initial residual = 3.56867e-05, Final residual = 4.35904e-07, No Iterations 2
time step continuity errors : sum local = 5.25041e-11, global = 1.08998e-11
PIMPLE: Iteration 5
GAMG:  Solving for p, Initial residual = 7.13263e-06, Final residual = 6.03438e-07, No Iterations 1
time step continuity errors : sum local = 7.26833e-11, global = 1.00329e-12, cumulative = -4.10998e-10
ExecutionTime = 0.147748 s  ClockTime = 0 s

Courant Number mean: 0.0145634 max: 0.0864002
Time = 0.125s

PIMPLE: Iteration 1
GAMG:  Solving for p, Initial residual = 0.00920053, Final residual = 6.79546e-07, No Iterations 6
time step continuity errors : sum local = 8.12646e-11, global = 1.60541e-11
PIMPLE: Iteration 2
GAMG:  Solving for p, Initial residual = 0.00277332, Final residual = 3.16639e-07, No Iterations 5
time step continuity errors : sum local = 3.7524e-11, global = -3.92743e-12
PIMPLE: Iteration 3
GAMG:  Solving for p, Initial residual = 0.000228866, Final residual = 8.81027e-07, No Iterations 3
time step continuity errors : sum local = 1.04264e-10, global = -1.12334e-11
PIMPLE: Iteration 4
GAMG:  Solving for p, Initial residual = 3.56822e-05, Final residual = 4.33119e-07, No Iterations 2
time step continuity errors : sum local = 5.12609e-11, global = 1.13375e-11
PIMPLE: Iteration 5
GAMG:  Solving for p, Initial residual = 7.12899e-06, Final residual = 5.92991e-07, No Iterations 1
time step continuity errors : sum local = 7.01821e-11, global = 1.40774e-12, cumulative = -4.0959e-10
ExecutionTime = 0.150449 s  ClockTime = 0 s

Courant Number mean: 0.0145637 max: 0.08657
Time = 0.13s

PIMPLE: Iteration 1
GAMG:  Solving for p, Initial residual = 0.00902501, Final residual = 6.33694e-07, No Iterations 6
time step continuity errors : sum local = 7.44718e-11, global = 1.36789e-11
PIMPLE: Iteration 2
GAMG:  Solving for p, Initial residual = 0.00275698, Final residual = 3.20111e-07, No Iterations 5
time step continuity errors : sum local = 3.72849e-11, global = -4.80847e-12
PIMPLE: Iteration 3
GAMG:  Solving for p, Initial residual = 0.000229596, Final residual = 8.71053e-07, No Iterations 3
time step continuity errors : sum local = 1.01318e-10, global = -1.038e-11
PIMPLE: Iteration 4
GAMG:  Solving for p, Initial residual = 3.56855e-05, Final residual = 4.34225e-07, No Iterations 2
time step continuity errors : sum local = 5.05118e-11, global = 1.17359e-11
PIMPLE: Iteration 5
GAMG:  Solving for p, Initial residual = 7.13461e-06, Final residual = 5.851e-07, No Iterations 1
time step continuity errors : sum local = 6.80623e-11, global = 1.7752e-12, cumulative = -4.07815e-10
ExecutionTime = 0.153136 s  ClockTime = 0 s

Courant Number mean: 0.014564 max: 0.0867351
Time = 0.135s

PIMPLE: Iteration 1
GAMG:  Solving for p, Initial residual = 0.00887195, Final residual = 5.96108e-07, No Iterations 6
time step continuity errors : sum local = 6.88674e-11, global = 1.15792e-11
PIMPLE: Iteration 2
GAMG:  Solving for p, Initial residual = 0.00274073, Final residual = 3.24192e-07, No Iterations 5
time step continuity errors : sum local = 3.7129e-11, global = -5.51473e-12
PIMPLE: Iteration 3
GAMG:  Solving for p, Initial residual = 0.000230412, Final residual = 8.59108e-07, No Iterations 3
time step continuity errors : sum local = 9.82643e-11, global = -9.5885e-12
PIMPLE: Iteration 4
GAMG:  Solving for p, Initial residual = 3.57118e-05, Final residual = 4.3828e-07, No Iterations 2
time step continuity errors : sum local = 5.01346e-11, global = 1.21138e-11
PIMPLE: Iteration 5
GAMG:  Solving for p, Initial residual = 7.15361e-06, Final residual = 5.78314e-07, No Iterations 1
time step continuity errors : sum local = 6.61528e-11, global = 2.11637e-12, cumulative = -4.05699e-10
ExecutionTime = 0.155838 s  ClockTime = 0 s

Courant Number mean: 0.0145643 max: 0.0868958
Time = 0.14s

PIMPLE: Iteration 1
GAMG:  Solving for p, Initial residual = 0.00873057, Final residual = 5.67502e-07, No Iterations 6
time step continuity errors : sum local = 6.44807e-11, global = 9.81378e-12
PIMPLE: Iteration 2
GAMG:  Solving for p, Initial residual = 0.00272696, Final residual = 3.29214e-07, No Iterations 5
time step continuity errors : sum local = 3.70885e-11, global = -6.07956e-12
PIMPLE: Iteration 3
GAMG:  Solving for p, Initial residual = 0.000231582, Final residual = 8.45789e-07, No Iterations 3
time step continuity errors : sum local = 9.51644e-11, global = -8.8682e-12
PIMPLE: Iteration 4
GAMG:  Solving for p, Initial residual = 3.5729e-05, Final residual = 4.47176e-07, No Iterations 2
time step continuity errors : sum local = 5.03187e-11, global = 1.24702e-11
PIMPLE: Iteration 5
GAMG:  Solving for p, Initial residual = 7.20408e-06, Final residual = 5.72324e-07, No Iterations 1
time step continuity errors : sum local = 6.44008e-11, global = 2.42325e-12, cumulative = -4.03275e-10
ExecutionTime = 0.158616 s  ClockTime = 0 s

Courant Number mean: 0.0145647 max: 0.0870524
Time = 0.145s

PIMPLE: Iteration 1
GAMG:  Solving for p, Initial residual = 0.00859342, Final residual = 5.44371e-07, No Iterations 6
time step continuity errors : sum local = 6.08519e-11, global = 8.32855e-12
PIMPLE: Iteration 2
GAMG:  Solving for p, Initial residual = 0.00271471, Final residual = 3.34912e-07, No Iterations 5
time step continuity errors : sum local = 3.71254e-11, global = -6.53371e-12
PIMPLE: Iteration 3
GAMG:  Solving for p, Initial residual = 0.000232913, Final residual = 8.30905e-07, No Iterations 3
time step continuity errors : sum local = 9.19941e-11, global = -8.21794e-12
PIMPLE: Iteration 4
GAMG:  Solving for p, Initial residual = 3.57643e-05, Final residual = 4.59366e-07, No Iterations 2
time step continuity errors : sum local = 5.08636e-11, global = 1.28144e-11
PIMPLE: Iteration 5
GAMG:  Solving for p, Initial residual = 7.28025e-06, Final residual = 5.67088e-07, No Iterations 1
time step continuity errors : sum local = 6.27909e-11, global = 2.71606e-12, cumulative = -4.00559e-10
ExecutionTime = 0.161332 s  ClockTime = 0 s

Courant Number mean: 0.0145651 max: 0.0872051
Time = 0.15s

PIMPLE: Iteration 1
GAMG:  Solving for p, Initial residual = 0.00846403, Final residual = 5.23854e-07, No Iterations 6
time step continuity errors : sum local = 5.76298e-11, global = 7.10253e-12
PIMPLE: Iteration 2
GAMG:  Solving for p, Initial residual = 0.0027032, Final residual = 3.41234e-07, No Iterations 5
time step continuity errors : sum local = 3.7232e-11, global = -6.90437e-12
PIMPLE: Iteration 3
GAMG:  Solving for p, Initial residual = 0.000234185, Final residual = 8.14841e-07, No Iterations 3
time step continuity errors : sum local = 8.87999e-11, global = -7.63812e-12
PIMPLE: Iteration 4
GAMG:  Solving for p, Initial residual = 3.57894e-05, Final residual = 4.72283e-07, No Iterations 2
time step continuity errors : sum local = 5.14733e-11, global = 1.31467e-11
PIMPLE: Iteration 5
GAMG:  Solving for p, Initial residual = 7.40058e-06, Final residual = 5.63916e-07, No Iterations 1
time step continuity errors : sum local = 6.14599e-11, global = 2.99538e-12, cumulative = -3.97564e-10
ExecutionTime = 0.164021 s  ClockTime = 0 s

volFieldValue UminMag write:
    minMag(all) of U = 0.0341173 at location (1.03411 -0.081386 -2.37561e-17) in cell 295

volFieldValue UmaxMag write:
    maxMag(all) of U = 2.87718 at location (0.0876405 -1.11358 -2.06271e-17) in cell 251

volFieldValue pMin write:
    min(all) of p = -3.02044 at location (0.081386 -1.03411 -2.22138e-17) in cell 250

volFieldValue pMax write:
    max(all) of p = 2.0303 at location (-4.59899 -1.37249 0) in cell 420

Courant Number mean: 0.0145656 max: 0.087354
Time = 0.155s

PIMPLE: Iteration 1
GAMG:  Solving for p, Initial residual = 0.00834334, Final residual = 5.0897e-07, No Iterations 6
time step continuity errors : sum local = 5.51197e-11, global = 6.12661e-12
PIMPLE: Iteration 2
GAMG:  Solving for p, Initial residual = 0.00269294, Final residual = 3.48076e-07, No Iterations 5
time step continuity errors : sum local = 3.73909e-11, global = -7.20565e-12
PIMPLE: Iteration 3
GAMG:  Solving for p, Initial residual = 0.000235518, Final residual = 7.98149e-07, No Iterations 3
time step continuity errors : sum local = 8.56375e-11, global = -7.12833e-12
PIMPLE: Iteration 4
GAMG:  Solving for p, Initial residual = 3.57916e-05, Final residual = 4.88067e-07, No Iterations 2
time step continuity errors : sum local = 5.23724e-11, global = 1.34698e-11
PIMPLE: Iteration 5
GAMG:  Solving for p, Initial residual = 7.51993e-06, Final residual = 5.61148e-07, No Iterations 1
time step continuity errors : sum local = 6.02141e-11, global = 3.26218e-12, cumulative = -3.94302e-10
ExecutionTime = 0.166721 s  ClockTime = 0 s

Courant Number mean: 0.0145661 max: 0.0874994
Time = 0.16s

PIMPLE: Iteration 1
GAMG:  Solving for p, Initial residual = 0.00852389, Final residual = 4.95242e-07, No Iterations 6
time step continuity errors : sum local = 5.2797e-11, global = 5.2264e-12
PIMPLE: Iteration 2
GAMG:  Solving for p, Initial residual = 0.00268603, Final residual = 3.5468e-07, No Iterations 5
time step continuity errors : sum local = 3.75017e-11, global = -7.49463e-12
PIMPLE: Iteration 3
GAMG:  Solving for p, Initial residual = 0.000237293, Final residual = 7.83173e-07, No Iterations 3
time step continuity errors : sum local = 8.27137e-11, global = -6.68462e-12
PIMPLE: Iteration 4
GAMG:  Solving for p, Initial residual = 3.58415e-05, Final residual = 5.07026e-07, No Iterations 2
time step continuity errors : sum local = 5.35543e-11, global = 1.37917e-11
PIMPLE: Iteration 5
GAMG:  Solving for p, Initial residual = 7.65368e-06, Final residual = 5.59479e-07, No Iterations 1
time step continuity errors : sum local = 5.90943e-11, global = 3.51813e-12, cumulative = -3.90784e-10
ExecutionTime = 0.169413 s  ClockTime = 0 s

Courant Number mean: 0.0145666 max: 0.0876414
Time = 0.165s

PIMPLE: Iteration 1
GAMG:  Solving for p, Initial residual = 0.00841561, Final residual = 4.85403e-07, No Iterations 6
time step continuity errors : sum local = 5.09434e-11, global = 4.73631e-12
PIMPLE: Iteration 2
GAMG:  Solving for p, Initial residual = 0.00267945, Final residual = 3.62136e-07, No Iterations 5
time step continuity errors : sum local = 3.77e-11, global = -7.70758e-12
PIMPLE: Iteration 3
GAMG:  Solving for p, Initial residual = 0.00023889, Final residual = 7.69233e-07, No Iterations 3
time step continuity errors : sum local = 7.99923e-11, global = -6.34776e-12
PIMPLE: Iteration 4
GAMG:  Solving for p, Initial residual = 3.58616e-05, Final residual = 5.25498e-07, No Iterations 2
time step continuity errors : sum local = 5.46524e-11, global = 1.40807e-11
PIMPLE: Iteration 5
GAMG:  Solving for p, Initial residual = 7.76787e-06, Final residual = 5.57016e-07, No Iterations 1
time step continuity errors : sum local = 5.79299e-11, global = 3.71402e-12, cumulative = -3.8707e-10
ExecutionTime = 0.172109 s  ClockTime = 0 s

Courant Number mean: 0.0145672 max: 0.0877803
Time = 0.17s

PIMPLE: Iteration 1
GAMG:  Solving for p, Initial residual = 0.00826889, Final residual = 4.77169e-07, No Iterations 6
time step continuity errors : sum local = 4.9318e-11, global = 4.3748e-12
PIMPLE: Iteration 2
GAMG:  Solving for p, Initial residual = 0.00267362, Final residual = 3.69503e-07, No Iterations 5
time step continuity errors : sum local = 3.7889e-11, global = -7.9118e-12
PIMPLE: Iteration 3
GAMG:  Solving for p, Initial residual = 0.000240763, Final residual = 7.57191e-07, No Iterations 3
time step continuity errors : sum local = 7.75586e-11, global = -6.08529e-12
PIMPLE: Iteration 4
GAMG:  Solving for p, Initial residual = 3.59134e-05, Final residual = 5.45059e-07, No Iterations 2
time step continuity errors : sum local = 5.58363e-11, global = 1.43612e-11
PIMPLE: Iteration 5
GAMG:  Solving for p, Initial residual = 7.90017e-06, Final residual = 5.56516e-07, No Iterations 1
time step continuity errors : sum local = 5.70096e-11, global = 3.88263e-12, cumulative = -3.83187e-10
ExecutionTime = 0.17478 s  ClockTime = 0 s

Courant Number mean: 0.0145677 max: 0.087916
Time = 0.175s

PIMPLE: Iteration 1
GAMG:  Solving for p, Initial residual = 0.00812332, Final residual = 4.73836e-07, No Iterations 6
time step continuity errors : sum local = 4.82444e-11, global = 4.22035e-12
PIMPLE: Iteration 2
GAMG:  Solving for p, Initial residual = 0.00266973, Final residual = 3.77502e-07, No Iterations 5
time step continuity errors : sum local = 3.81377e-11, global = -8.08716e-12
PIMPLE: Iteration 3
GAMG:  Solving for p, Initial residual = 0.000243409, Final residual = 7.45312e-07, No Iterations 3
time step continuity errors : sum local = 7.52155e-11, global = -5.88055e-12
PIMPLE: Iteration 4
GAMG:  Solving for p, Initial residual = 3.59386e-05, Final residual = 5.65068e-07, No Iterations 2
time step continuity errors : sum local = 5.70321e-11, global = 1.46469e-11
PIMPLE: Iteration 5
GAMG:  Solving for p, Initial residual = 8.04323e-06, Final residual = 5.56435e-07, No Iterations 1
time step continuity errors : sum local = 5.61603e-11, global = 4.05328e-12, cumulative = -3.79134e-10
ExecutionTime = 0.177526 s  ClockTime = 0 s

Courant Number mean: 0.0145683 max: 0.0881345
Time = 0.18s

PIMPLE: Iteration 1
GAMG:  Solving for p, Initial residual = 0.00798918, Final residual = 4.79326e-07, No Iterations 6
time step continuity errors : sum local = 4.80893e-11, global = 4.37555e-12
PIMPLE: Iteration 2
GAMG:  Solving for p, Initial residual = 0.00266736, Final residual = 3.86034e-07, No Iterations 5
time step continuity errors : sum local = 3.84342e-11, global = -8.23163e-12
PIMPLE: Iteration 3
GAMG:  Solving for p, Initial residual = 0.000246066, Final residual = 7.3418e-07, No Iterations 3
time step continuity errors : sum local = 7.30184e-11, global = -5.73665e-12
PIMPLE: Iteration 4
GAMG:  Solving for p, Initial residual = 3.59334e-05, Final residual = 5.85071e-07, No Iterations 2
time step continuity errors : sum local = 5.81949e-11, global = 1.493e-11
PIMPLE: Iteration 5
GAMG:  Solving for p, Initial residual = 8.183e-06, Final residual = 5.559e-07, No Iterations 1
time step continuity errors : sum local = 5.5293e-11, global = 4.2204e-12, cumulative = -3.74913e-10
ExecutionTime = 0.180301 s  ClockTime = 0 s

Courant Number mean: 0.014569 max: 0.0884442
Time = 0.185s

PIMPLE: Iteration 1
GAMG:  Solving for p, Initial residual = 0.00836622, Final residual = 4.76804e-07, No Iterations 6
time step continuity errors : sum local = 4.71265e-11, global = 4.61498e-12
PIMPLE: Iteration 2
GAMG:  Solving for p, Initial residual = 0.00266999, Final residual = 3.93114e-07, No Iterations 5
time step continuity errors : sum local = 3.8545e-11, global = -8.40336e-12
PIMPLE: Iteration 3
GAMG:  Solving for p, Initial residual = 0.000249268, Final residual = 7.32134e-07, No Iterations 3
time step continuity errors : sum local = 7.17098e-11, global = -5.7322e-12
PIMPLE: Iteration 4
GAMG:  Solving for p, Initial residual = 3.61816e-05, Final residual = 6.04183e-07, No Iterations 2
time step continuity errors : sum local = 5.9184e-11, global = 1.51144e-11
PIMPLE: Iteration 5
GAMG:  Solving for p, Initial residual = 8.3493e-06, Final residual = 5.63008e-07, No Iterations 1
time step continuity errors : sum local = 5.51501e-11, global = 4.26607e-12, cumulative = -3.70647e-10
ExecutionTime = 0.183048 s  ClockTime = 0 s

Courant Number mean: 0.0145696 max: 0.088753
Time = 0.19s

PIMPLE: Iteration 1
GAMG:  Solving for p, Initial residual = 0.00782861, Final residual = 4.77926e-07, No Iterations 6
time step continuity errors : sum local = 4.65458e-11, global = 4.63176e-12
PIMPLE: Iteration 2
GAMG:  Solving for p, Initial residual = 0.00266694, Final residual = 4.00199e-07, No Iterations 5
time step continuity errors : sum local = 3.86868e-11, global = -8.56464e-12
PIMPLE: Iteration 3
GAMG:  Solving for p, Initial residual = 0.000252167, Final residual = 7.26914e-07, No Iterations 3
time step continuity errors : sum local = 7.01959e-11, global = -5.6704e-12
PIMPLE: Iteration 4
GAMG:  Solving for p, Initial residual = 3.6239e-05, Final residual = 6.25511e-07, No Iterations 2
time step continuity errors : sum local = 6.04102e-11, global = 1.53677e-11
PIMPLE: Iteration 5
GAMG:  Solving for p, Initial residual = 8.471e-06, Final residual = 5.59664e-07, No Iterations 1
time step continuity errors : sum local = 5.40503e-11, global = 4.38532e-12, cumulative = -3.66262e-10
ExecutionTime = 0.18572 s  ClockTime = 0 s

Courant Number mean: 0.0145703 max: 0.089061
Time = 0.195s

PIMPLE: Iteration 1
GAMG:  Solving for p, Initial residual = 0.00775452, Final residual = 4.74841e-07, No Iterations 6
time step continuity errors : sum local = 4.55996e-11, global = 4.85215e-12
PIMPLE: Iteration 2
GAMG:  Solving for p, Initial residual = 0.00266792, Final residual = 4.06998e-07, No Iterations 5
time step continuity errors : sum local = 3.88006e-11, global = -8.7187e-12
PIMPLE: Iteration 3
GAMG:  Solving for p, Initial residual = 0.000254792, Final residual = 7.30265e-07, No Iterations 3
time step continuity errors : sum local = 6.95468e-11, global = -5.76256e-12
PIMPLE: Iteration 4
GAMG:  Solving for p, Initial residual = 3.65599e-05, Final residual = 6.43847e-07, No Iterations 2
time step continuity errors : sum local = 6.13236e-11, global = 1.55172e-11
PIMPLE: Iteration 5
GAMG:  Solving for p, Initial residual = 8.62885e-06, Final residual = 5.66502e-07, No Iterations 1
time step continuity errors : sum local = 5.39563e-11, global = 4.37615e-12, cumulative = -3.61886e-10
ExecutionTime = 0.188457 s  ClockTime = 0 s

Courant Number mean: 0.014571 max: 0.0893678
Time = 0.2s

PIMPLE: Iteration 1
GAMG:  Solving for p, Initial residual = 0.00752749, Final residual = 4.72368e-07, No Iterations 6
time step continuity errors : sum local = 4.47461e-11, global = 4.96997e-12
PIMPLE: Iteration 2
GAMG:  Solving for p, Initial residual = 0.00266652, Final residual = 4.13909e-07, No Iterations 5
time step continuity errors : sum local = 3.89323e-11, global = -8.86822e-12
PIMPLE: Iteration 3
GAMG:  Solving for p, Initial residual = 0.000257479, Final residual = 7.32203e-07, No Iterations 3
time step continuity errors : sum local = 6.88004e-11, global = -5.84127e-12
PIMPLE: Iteration 4
GAMG:  Solving for p, Initial residual = 3.6769e-05, Final residual = 6.63479e-07, No Iterations 2
time step continuity errors : sum local = 6.23498e-11, global = 1.57018e-11
PIMPLE: Iteration 5
GAMG:  Solving for p, Initial residual = 8.79515e-06, Final residual = 5.71323e-07, No Iterations 1
time step continuity errors : sum local = 5.3689e-11, global = 4.41196e-12, cumulative = -3.57474e-10
ExecutionTime = 0.191346 s  ClockTime = 0 s

volFieldValue UminMag write:
    minMag(all) of U = 0.0216281 at location (1.03411 -0.081386 -2.37561e-17) in cell 295

volFieldValue UmaxMag write:
    maxMag(all) of U = 2.89281 at location (0.0876405 -1.11358 -2.06271e-17) in cell 251

volFieldValue pMin write:
    min(all) of p = -3.03707 at location (0.081386 -1.03411 -2.22138e-17) in cell 250

volFieldValue pMax write:
    max(all) of p = 1.88747 at location (-4.59899 -1.37249 0) in cell 420

End

[rom_precheck] t=0.3 u_max=5.94604 (limit 10) p_abs_gaugeRemoved=1361.62 (limit 50)

[cmd] (cwd=/home/kalel1938/Documents/codex_projects/adaptive_model_reduction/results/low/adaptive/adaptive_case) foamRun -solver incompressibleFluid
/*---------------------------------------------------------------------------*\
  =========                 |
  \\      /  F ield         | OpenFOAM: The Open Source CFD Toolbox
   \\    /   O peration     | Website:  https://openfoam.org
    \\  /    A nd           | Version:  13
     \\/     M anipulation  |
\*---------------------------------------------------------------------------*/
Build  : 13-cde978a97c93
Exec   : foamRun -solver incompressibleFluid
Date   : Dec 19 2025
Time   : 23:31:47
Host   : "kalel1938-asus"
PID    : 918153
I/O    : uncollated
Case   : /home/kalel1938/Documents/codex_projects/adaptive_model_reduction/results/low/adaptive/adaptive_case
nProcs : 1
sigFpe : Enabling floating point exception trapping (FOAM_SIGFPE).
fileModificationChecking : Monitoring run-time modified files using timeStampMaster (fileModificationSkew 10)
allowSystemOperations : Allowing user-supplied system call operations

// * * * * * * * * * * * * * * * * * * * * * * * * * * * * * * * * * * * * * //
Create time

Create mesh for time = 0.2

Selecting solver incompressibleFluid
Selecting viscosity model constant
Selecting turbulence model type laminar
    Selecting laminar stress model Stokes
No MRF models present

Courant Number mean: 0.0145718 max: 0.0896735

PIMPLE: No convergence criteria found


PIMPLE: No corrector convergence criteria found
        Calculations will do 5 corrections


PIMPLE: Operating solver in transient mode with 5 outer correctors



Starting time loop

volFieldValue UminMag read:
    number of cells = 440
    volume = 73.7426
    operation = minMag

volFieldValue UmaxMag read:
    number of cells = 440
    volume = 73.7426
    operation = maxMag

volFieldValue pMin read:
    number of cells = 440
    volume = 73.7426
    operation = min

volFieldValue pMax read:
    number of cells = 440
    volume = 73.7426
    operation = max

volFieldValue UminMag write:
    minMag(all) of U = 0.0216281 at location (1.03411 -0.081386 -2.37561e-17) in cell 295

volFieldValue UmaxMag write:
    maxMag(all) of U = 2.89281 at location (0.0876405 -1.11358 -2.06271e-17) in cell 251

volFieldValue pMin write:
    min(all) of p = -3.03707 at location (0.081386 -1.03411 -2.22138e-17) in cell 250

volFieldValue pMax write:
    max(all) of p = 1.88747 at location (-4.59899 -1.37249 0) in cell 420

Courant Number mean: 0.0145718 max: 0.0896735
Time = 0.205s

PIMPLE: Iteration 1
GAMG:  Solving for p, Initial residual = 0.00762557, Final residual = 4.74359e-07, No Iterations 6
time step continuity errors : sum local = 4.43301e-11, global = 5.16172e-12
PIMPLE: Iteration 2
GAMG:  Solving for p, Initial residual = 0.00266824, Final residual = 4.20589e-07, No Iterations 5
time step continuity errors : sum local = 3.90246e-11, global = -9.00756e-12
PIMPLE: Iteration 3
GAMG:  Solving for p, Initial residual = 0.000260088, Final residual = 7.3702e-07, No Iterations 3
time step continuity errors : sum local = 6.83148e-11, global = -5.96884e-12
PIMPLE: Iteration 4
GAMG:  Solving for p, Initial residual = 3.70351e-05, Final residual = 6.778e-07, No Iterations 2
time step continuity errors : sum local = 6.28327e-11, global = 1.57683e-11
PIMPLE: Iteration 5
GAMG:  Solving for p, Initial residual = 8.95369e-06, Final residual = 5.78991e-07, No Iterations 1
time step continuity errors : sum local = 5.36725e-11, global = 4.34848e-12, cumulative = 4.34848e-12
ExecutionTime = 0.059418 s  ClockTime = 0 s

Courant Number mean: 0.0145726 max: 0.0899779
Time = 0.21s

PIMPLE: Iteration 1
GAMG:  Solving for p, Initial residual = 0.00750946, Final residual = 4.60587e-07, No Iterations 6
time step continuity errors : sum local = 4.24669e-11, global = 5.1453e-12
PIMPLE: Iteration 2
GAMG:  Solving for p, Initial residual = 0.00266422, Final residual = 4.29666e-07, No Iterations 5
time step continuity errors : sum local = 3.93405e-11, global = -9.1642e-12
PIMPLE: Iteration 3
GAMG:  Solving for p, Initial residual = 0.000263764, Final residual = 7.46008e-07, No Iterations 3
time step continuity errors : sum local = 6.82357e-11, global = -6.16308e-12
PIMPLE: Iteration 4
GAMG:  Solving for p, Initial residual = 3.7505e-05, Final residual = 7.06546e-07, No Iterations 2
time step continuity errors : sum local = 6.46335e-11, global = 1.60626e-11
PIMPLE: Iteration 5
GAMG:  Solving for p, Initial residual = 9.2132e-06, Final residual = 5.94827e-07, No Iterations 1
time step continuity errors : sum local = 5.44132e-11, global = 4.42505e-12, cumulative = 8.77354e-12
ExecutionTime = 0.062233 s  ClockTime = 0 s

Courant Number mean: 0.0145734 max: 0.0902808
Time = 0.215s

PIMPLE: Iteration 1
GAMG:  Solving for p, Initial residual = 0.00761967, Final residual = 4.62517e-07, No Iterations 6
time step continuity errors : sum local = 4.20755e-11, global = 5.1586e-12
PIMPLE: Iteration 2
GAMG:  Solving for p, Initial residual = 0.0026653, Final residual = 4.3763e-07, No Iterations 5
time step continuity errors : sum local = 3.95288e-11, global = -9.30098e-12
PIMPLE: Iteration 3
GAMG:  Solving for p, Initial residual = 0.000266096, Final residual = 7.45193e-07, No Iterations 3
time step continuity errors : sum local = 6.72423e-11, global = -6.20472e-12
PIMPLE: Iteration 4
GAMG:  Solving for p, Initial residual = 3.76263e-05, Final residual = 7.24333e-07, No Iterations 2
time step continuity errors : sum local = 6.53674e-11, global = 1.62213e-11
PIMPLE: Iteration 5
GAMG:  Solving for p, Initial residual = 9.33936e-06, Final residual = 5.97734e-07, No Iterations 1
time step continuity errors : sum local = 5.3942e-11, global = 4.48558e-12, cumulative = 1.32591e-11
ExecutionTime = 0.065013 s  ClockTime = 0 s

Courant Number mean: 0.0145742 max: 0.0905821
Time = 0.22s

PIMPLE: Iteration 1
GAMG:  Solving for p, Initial residual = 0.00761075, Final residual = 4.56784e-07, No Iterations 6
time step continuity errors : sum local = 4.0993e-11, global = 5.16142e-12
PIMPLE: Iteration 2
GAMG:  Solving for p, Initial residual = 0.00266864, Final residual = 4.46337e-07, No Iterations 5
time step continuity errors : sum local = 3.97719e-11, global = -9.44418e-12
PIMPLE: Iteration 3
GAMG:  Solving for p, Initial residual = 0.000269358, Final residual = 7.54823e-07, No Iterations 3
time step continuity errors : sum local = 6.71949e-11, global = -6.38833e-12
PIMPLE: Iteration 4
GAMG:  Solving for p, Initial residual = 3.81085e-05, Final residual = 7.43416e-07, No Iterations 2
time step continuity errors : sum local = 6.61869e-11, global = 1.63389e-11
PIMPLE: Iteration 5
GAMG:  Solving for p, Initial residual = 9.53481e-06, Final residual = 6.13487e-07, No Iterations 1
time step continuity errors : sum local = 5.46187e-11, global = 4.44796e-12, cumulative = 1.77071e-11
ExecutionTime = 0.067813 s  ClockTime = 0 s

Courant Number mean: 0.0145751 max: 0.0908817
Time = 0.225s

PIMPLE: Iteration 1
GAMG:  Solving for p, Initial residual = 0.00756503, Final residual = 4.57299e-07, No Iterations 6
time step continuity errors : sum local = 4.04874e-11, global = 5.2009e-12
PIMPLE: Iteration 2
GAMG:  Solving for p, Initial residual = 0.00267104, Final residual = 4.55463e-07, No Iterations 5
time step continuity errors : sum local = 4.00416e-11, global = -9.58677e-12
PIMPLE: Iteration 3
GAMG:  Solving for p, Initial residual = 0.000272723, Final residual = 7.63194e-07, No Iterations 3
time step continuity errors : sum local = 6.70329e-11, global = -6.56162e-12
PIMPLE: Iteration 4
GAMG:  Solving for p, Initial residual = 3.86292e-05, Final residual = 7.64581e-07, No Iterations 2
time step continuity errors : sum local = 6.71622e-11, global = 1.64542e-11
PIMPLE: Iteration 5
GAMG:  Solving for p, Initial residual = 9.74813e-06, Final residual = 6.33304e-07, No Iterations 1
time step continuity errors : sum local = 5.563e-11, global = 4.40456e-12, cumulative = 2.21116e-11
ExecutionTime = 0.070622 s  ClockTime = 0 s

Courant Number mean: 0.014576 max: 0.0911796
Time = 0.23s

PIMPLE: Iteration 1
GAMG:  Solving for p, Initial residual = 0.0072476, Final residual = 4.46661e-07, No Iterations 6
time step continuity errors : sum local = 3.90333e-11, global = 5.0434e-12
PIMPLE: Iteration 2
GAMG:  Solving for p, Initial residual = 0.00266895, Final residual = 4.64983e-07, No Iterations 5
time step continuity errors : sum local = 4.03699e-11, global = -9.73826e-12
PIMPLE: Iteration 3
GAMG:  Solving for p, Initial residual = 0.000276203, Final residual = 7.72493e-07, No Iterations 3
time step continuity errors : sum local = 6.70121e-11, global = -6.7283e-12
PIMPLE: Iteration 4
GAMG:  Solving for p, Initial residual = 3.90201e-05, Final residual = 7.85037e-07, No Iterations 2
time step continuity errors : sum local = 6.81077e-11, global = 1.66008e-11
PIMPLE: Iteration 5
GAMG:  Solving for p, Initial residual = 9.92857e-06, Final residual = 6.48095e-07, No Iterations 1
time step continuity errors : sum local = 5.62264e-11, global = 4.40698e-12, cumulative = 2.65186e-11
ExecutionTime = 0.073456 s  ClockTime = 0 s

Courant Number mean: 0.0145769 max: 0.0914756
Time = 0.235s

PIMPLE: Iteration 1
GAMG:  Solving for p, Initial residual = 0.00720392, Final residual = 4.36566e-07, No Iterations 6
time step continuity errors : sum local = 3.76912e-11, global = 4.86605e-12
PIMPLE: Iteration 2
GAMG:  Solving for p, Initial residual = 0.00266703, Final residual = 4.74632e-07, No Iterations 5
time step continuity errors : sum local = 4.07252e-11, global = -9.88901e-12
PIMPLE: Iteration 3
GAMG:  Solving for p, Initial residual = 0.000279865, Final residual = 7.8624e-07, No Iterations 3
time step continuity errors : sum local = 6.74092e-11, global = -6.93584e-12
PIMPLE: Iteration 4
GAMG:  Solving for p, Initial residual = 3.95921e-05, Final residual = 8.03263e-07, No Iterations 2
time step continuity errors : sum local = 6.8876e-11, global = 1.66845e-11
PIMPLE: Iteration 5
GAMG:  Solving for p, Initial residual = 1.01301e-05, Final residual = 6.69189e-07, No Iterations 1
time step continuity errors : sum local = 5.73792e-11, global = 4.3311e-12, cumulative = 3.08497e-11
ExecutionTime = 0.076227 s  ClockTime = 0 s

Courant Number mean: 0.0145778 max: 0.0917693
Time = 0.24s

PIMPLE: Iteration 1
GAMG:  Solving for p, Initial residual = 0.00687406, Final residual = 4.30349e-07, No Iterations 6
time step continuity errors : sum local = 3.67369e-11, global = 4.74127e-12
PIMPLE: Iteration 2
GAMG:  Solving for p, Initial residual = 0.00266483, Final residual = 4.84402e-07, No Iterations 5
time step continuity errors : sum local = 4.11206e-11, global = -1.00475e-11
PIMPLE: Iteration 3
GAMG:  Solving for p, Initial residual = 0.000282806, Final residual = 7.8916e-07, No Iterations 3
time step continuity errors : sum local = 6.69488e-11, global = -7.03106e-12
PIMPLE: Iteration 4
GAMG:  Solving for p, Initial residual = 3.97925e-05, Final residual = 8.25087e-07, No Iterations 2
time step continuity errors : sum local = 7.00043e-11, global = 1.68867e-11
PIMPLE: Iteration 5
GAMG:  Solving for p, Initial residual = 1.0282e-05, Final residual = 6.79352e-07, No Iterations 1
time step continuity errors : sum local = 5.76388e-11, global = 4.40165e-12, cumulative = 3.52514e-11
ExecutionTime = 0.079007 s  ClockTime = 0 s

Courant Number mean: 0.0145787 max: 0.0920608
Time = 0.245s

PIMPLE: Iteration 1
GAMG:  Solving for p, Initial residual = 0.00660449, Final residual = 4.21735e-07, No Iterations 6
time step continuity errors : sum local = 3.56421e-11, global = 4.59901e-12
PIMPLE: Iteration 2
GAMG:  Solving for p, Initial residual = 0.00266018, Final residual = 4.93165e-07, No Iterations 5
time step continuity errors : sum local = 4.14729e-11, global = -1.02069e-11
PIMPLE: Iteration 3
GAMG:  Solving for p, Initial residual = 0.000285536, Final residual = 7.96924e-07, No Iterations 3
time step continuity errors : sum local = 6.69817e-11, global = -7.18187e-12
PIMPLE: Iteration 4
GAMG:  Solving for p, Initial residual = 4.02141e-05, Final residual = 8.43097e-07, No Iterations 2
time step continuity errors : sum local = 7.08702e-11, global = 1.70095e-11
PIMPLE: Iteration 5
GAMG:  Solving for p, Initial residual = 1.04324e-05, Final residual = 6.93574e-07, No Iterations 1
time step continuity errors : sum local = 5.83007e-11, global = 4.37373e-12, cumulative = 3.96251e-11
ExecutionTime = 0.081707 s  ClockTime = 0 s

Courant Number mean: 0.0145797 max: 0.0923498
Time = 0.25s

PIMPLE: Iteration 1
GAMG:  Solving for p, Initial residual = 0.00639893, Final residual = 4.13247e-07, No Iterations 6
time step continuity errors : sum local = 3.46111e-11, global = 4.44008e-12
PIMPLE: Iteration 2
GAMG:  Solving for p, Initial residual = 0.00265323, Final residual = 5.01782e-07, No Iterations 5
time step continuity errors : sum local = 4.18316e-11, global = -1.03652e-11
PIMPLE: Iteration 3
GAMG:  Solving for p, Initial residual = 0.000288086, Final residual = 8.04527e-07, No Iterations 3
time step continuity errors : sum local = 6.70356e-11, global = -7.33689e-12
PIMPLE: Iteration 4
GAMG:  Solving for p, Initial residual = 4.06973e-05, Final residual = 8.60503e-07, No Iterations 2
time step continuity errors : sum local = 7.17073e-11, global = 1.7119e-11
PIMPLE: Iteration 5
GAMG:  Solving for p, Initial residual = 1.05798e-05, Final residual = 7.08922e-07, No Iterations 1
time step continuity errors : sum local = 5.9075e-11, global = 4.3328e-12, cumulative = 4.39579e-11
ExecutionTime = 0.08452 s  ClockTime = 0 s

volFieldValue UminMag write:
    minMag(all) of U = 0.0138136 at location (1.03411 -0.081386 -2.37561e-17) in cell 295

volFieldValue UmaxMag write:
    maxMag(all) of U = 2.91671 at location (0.0938954 -1.19305 -4.07481e-17) in cell 252

volFieldValue pMin write:
    min(all) of p = -3.02126 at location (0.081386 -1.03411 -2.22138e-17) in cell 250

volFieldValue pMax write:
    max(all) of p = 1.80607 at location (-1.03411 -0.081386 2.45533e-17) in cell 369

Courant Number mean: 0.0145807 max: 0.0926363
Time = 0.255s

PIMPLE: Iteration 1
GAMG:  Solving for p, Initial residual = 0.00620626, Final residual = 4.04666e-07, No Iterations 6
time step continuity errors : sum local = 3.36079e-11, global = 4.27379e-12
PIMPLE: Iteration 2
GAMG:  Solving for p, Initial residual = 0.00264477, Final residual = 5.10223e-07, No Iterations 5
time step continuity errors : sum local = 4.21912e-11, global = -1.05236e-11
PIMPLE: Iteration 3
GAMG:  Solving for p, Initial residual = 0.000290417, Final residual = 8.11431e-07, No Iterations 3
time step continuity errors : sum local = 6.70656e-11, global = -7.48591e-12
PIMPLE: Iteration 4
GAMG:  Solving for p, Initial residual = 4.11491e-05, Final residual = 8.77717e-07, No Iterations 2
time step continuity errors : sum local = 7.25519e-11, global = 1.72294e-11
PIMPLE: Iteration 5
GAMG:  Solving for p, Initial residual = 1.07218e-05, Final residual = 7.24467e-07, No Iterations 1
time step continuity errors : sum local = 5.98835e-11, global = 4.29594e-12, cumulative = 4.82538e-11
ExecutionTime = 0.087371 s  ClockTime = 0 s

Courant Number mean: 0.0145817 max: 0.0929201
Time = 0.26s

PIMPLE: Iteration 1
GAMG:  Solving for p, Initial residual = 0.00602606, Final residual = 3.96156e-07, No Iterations 6
time step continuity errors : sum local = 3.2643e-11, global = 4.10629e-12
PIMPLE: Iteration 2
GAMG:  Solving for p, Initial residual = 0.00263527, Final residual = 5.18792e-07, No Iterations 5
time step continuity errors : sum local = 4.25771e-11, global = -1.06828e-11
PIMPLE: Iteration 3
GAMG:  Solving for p, Initial residual = 0.000292931, Final residual = 8.17888e-07, No Iterations 3
time step continuity errors : sum local = 6.70973e-11, global = -7.63021e-12
PIMPLE: Iteration 4
GAMG:  Solving for p, Initial residual = 4.15828e-05, Final residual = 8.94506e-07, No Iterations 2
time step continuity errors : sum local = 7.33905e-11, global = 1.73377e-11
PIMPLE: Iteration 5
GAMG:  Solving for p, Initial residual = 1.08567e-05, Final residual = 7.39909e-07, No Iterations 1
time step continuity errors : sum local = 6.07056e-11, global = 4.25909e-12, cumulative = 5.25129e-11
ExecutionTime = 0.090152 s  ClockTime = 0 s

Courant Number mean: 0.0145827 max: 0.0932012
Time = 0.265s

PIMPLE: Iteration 1
GAMG:  Solving for p, Initial residual = 0.00585437, Final residual = 3.87782e-07, No Iterations 6
time step continuity errors : sum local = 3.17205e-11, global = 3.94014e-12
PIMPLE: Iteration 2
GAMG:  Solving for p, Initial residual = 0.00262457, Final residual = 5.27289e-07, No Iterations 5
time step continuity errors : sum local = 4.29675e-11, global = -1.08433e-11
PIMPLE: Iteration 3
GAMG:  Solving for p, Initial residual = 0.000295605, Final residual = 8.24234e-07, No Iterations 3
time step continuity errors : sum local = 6.71399e-11, global = -7.77018e-12
PIMPLE: Iteration 4
GAMG:  Solving for p, Initial residual = 4.20238e-05, Final residual = 9.11028e-07, No Iterations 2
time step continuity errors : sum local = 7.42177e-11, global = 1.74432e-11
PIMPLE: Iteration 5
GAMG:  Solving for p, Initial residual = 1.09903e-05, Final residual = 7.55427e-07, No Iterations 1
time step continuity errors : sum local = 6.15407e-11, global = 4.2211e-12, cumulative = 5.6734e-11
ExecutionTime = 0.092927 s  ClockTime = 0 s

Courant Number mean: 0.0145837 max: 0.0934792
Time = 0.27s

PIMPLE: Iteration 1
GAMG:  Solving for p, Initial residual = 0.00569084, Final residual = 3.79609e-07, No Iterations 6
time step continuity errors : sum local = 3.08365e-11, global = 3.77705e-12
PIMPLE: Iteration 2
GAMG:  Solving for p, Initial residual = 0.00261324, Final residual = 5.35667e-07, No Iterations 5
time step continuity errors : sum local = 4.33548e-11, global = -1.10055e-11
PIMPLE: Iteration 3
GAMG:  Solving for p, Initial residual = 0.000298152, Final residual = 8.30445e-07, No Iterations 3
time step continuity errors : sum local = 6.71911e-11, global = -7.90633e-12
PIMPLE: Iteration 4
GAMG:  Solving for p, Initial residual = 4.24852e-05, Final residual = 9.27541e-07, No Iterations 2
time step continuity errors : sum local = 7.50557e-11, global = 1.7545e-11
PIMPLE: Iteration 5
GAMG:  Solving for p, Initial residual = 1.11206e-05, Final residual = 7.71991e-07, No Iterations 1
time step continuity errors : sum local = 6.24678e-11, global = 4.18061e-12, cumulative = 6.09146e-11
ExecutionTime = 0.095718 s  ClockTime = 0 s

Courant Number mean: 0.0145848 max: 0.0937542
Time = 0.275s

PIMPLE: Iteration 1
GAMG:  Solving for p, Initial residual = 0.00553323, Final residual = 3.71747e-07, No Iterations 6
time step continuity errors : sum local = 2.99976e-11, global = 3.61858e-12
PIMPLE: Iteration 2
GAMG:  Solving for p, Initial residual = 0.00260164, Final residual = 5.43924e-07, No Iterations 5
time step continuity errors : sum local = 4.37357e-11, global = -1.11697e-11
PIMPLE: Iteration 3
GAMG:  Solving for p, Initial residual = 0.000300606, Final residual = 8.36658e-07, No Iterations 3
time step continuity errors : sum local = 6.72529e-11, global = -8.03882e-12
PIMPLE: Iteration 4
GAMG:  Solving for p, Initial residual = 4.29324e-05, Final residual = 9.44353e-07, No Iterations 2
time step continuity errors : sum local = 7.59183e-11, global = 1.76425e-11
PIMPLE: Iteration 5
GAMG:  Solving for p, Initial residual = 1.12482e-05, Final residual = 7.89082e-07, No Iterations 1
time step continuity errors : sum local = 6.34348e-11, global = 4.13697e-12, cumulative = 6.50516e-11
ExecutionTime = 0.098492 s  ClockTime = 0 s

Courant Number mean: 0.0145858 max: 0.094026
Time = 0.28s

PIMPLE: Iteration 1
GAMG:  Solving for p, Initial residual = 0.00538117, Final residual = 3.64169e-07, No Iterations 6
time step continuity errors : sum local = 2.91996e-11, global = 3.46595e-12
PIMPLE: Iteration 2
GAMG:  Solving for p, Initial residual = 0.00259078, Final residual = 5.521e-07, No Iterations 5
time step continuity errors : sum local = 4.4121e-11, global = -1.13361e-11
PIMPLE: Iteration 3
GAMG:  Solving for p, Initial residual = 0.000302877, Final residual = 8.42671e-07, No Iterations 3
time step continuity errors : sum local = 6.73233e-11, global = -8.16785e-12
PIMPLE: Iteration 4
GAMG:  Solving for p, Initial residual = 4.33588e-05, Final residual = 9.60954e-07, No Iterations 2
time step continuity errors : sum local = 7.67819e-11, global = 1.77351e-11
PIMPLE: Iteration 5
GAMG:  Solving for p, Initial residual = 1.13736e-05, Final residual = 8.05855e-07, No Iterations 1
time step continuity errors : sum local = 6.43882e-11, global = 4.08971e-12, cumulative = 6.91413e-11
ExecutionTime = 0.101311 s  ClockTime = 0 s

Courant Number mean: 0.0145869 max: 0.0942945
Time = 0.285s

PIMPLE: Iteration 1
GAMG:  Solving for p, Initial residual = 0.0052317, Final residual = 3.56843e-07, No Iterations 6
time step continuity errors : sum local = 2.84404e-11, global = 3.3198e-12
PIMPLE: Iteration 2
GAMG:  Solving for p, Initial residual = 0.00257963, Final residual = 5.60552e-07, No Iterations 5
time step continuity errors : sum local = 4.4532e-11, global = -1.15049e-11
PIMPLE: Iteration 3
GAMG:  Solving for p, Initial residual = 0.000305046, Final residual = 8.48779e-07, No Iterations 3
time step continuity errors : sum local = 6.74109e-11, global = -8.29387e-12
PIMPLE: Iteration 4
GAMG:  Solving for p, Initial residual = 4.38437e-05, Final residual = 9.7731e-07, No Iterations 2
time step continuity errors : sum local = 7.76277e-11, global = 1.78223e-11
PIMPLE: Iteration 5
GAMG:  Solving for p, Initial residual = 1.14973e-05, Final residual = 8.2256e-07, No Iterations 1
time step continuity errors : sum local = 6.53347e-11, global = 4.03826e-12, cumulative = 7.31796e-11
ExecutionTime = 0.104127 s  ClockTime = 0 s

Courant Number mean: 0.014588 max: 0.0945595
Time = 0.29s

PIMPLE: Iteration 1
GAMG:  Solving for p, Initial residual = 0.00508522, Final residual = 3.49848e-07, No Iterations 6
time step continuity errors : sum local = 2.77211e-11, global = 3.18084e-12
PIMPLE: Iteration 2
GAMG:  Solving for p, Initial residual = 0.00256816, Final residual = 5.68979e-07, No Iterations 5
time step continuity errors : sum local = 4.4946e-11, global = -1.16765e-11
PIMPLE: Iteration 3
GAMG:  Solving for p, Initial residual = 0.000307066, Final residual = 8.55019e-07, No Iterations 3
time step continuity errors : sum local = 6.75256e-11, global = -8.4172e-12
PIMPLE: Iteration 4
GAMG:  Solving for p, Initial residual = 4.43786e-05, Final residual = 9.93721e-07, No Iterations 2
time step continuity errors : sum local = 7.84886e-11, global = 1.79034e-11
PIMPLE: Iteration 5
GAMG:  Solving for p, Initial residual = 1.16323e-05, Final residual = 8.39298e-07, No Iterations 1
time step continuity errors : sum local = 6.62903e-11, global = 3.98212e-12, cumulative = 7.71617e-11
ExecutionTime = 0.10692 s  ClockTime = 0 s

Courant Number mean: 0.0145891 max: 0.0948209
Time = 0.295s

PIMPLE: Iteration 1
GAMG:  Solving for p, Initial residual = 0.00494325, Final residual = 3.43227e-07, No Iterations 6
time step continuity errors : sum local = 2.70458e-11, global = 3.04968e-12
PIMPLE: Iteration 2
GAMG:  Solving for p, Initial residual = 0.00255614, Final residual = 5.77319e-07, No Iterations 5
time step continuity errors : sum local = 4.53577e-11, global = -1.18517e-11
PIMPLE: Iteration 3
GAMG:  Solving for p, Initial residual = 0.000309051, Final residual = 8.6139e-07, No Iterations 3
time step continuity errors : sum local = 6.76632e-11, global = -8.53746e-12
PIMPLE: Iteration 4
GAMG:  Solving for p, Initial residual = 4.4927e-05, Final residual = 2.94969e-07, No Iterations 3
time step continuity errors : sum local = 2.31728e-11, global = 4.07154e-12
PIMPLE: Iteration 5
GAMG:  Solving for p, Initial residual = 1.15341e-05, Final residual = 7.06334e-07, No Iterations 1
time step continuity errors : sum local = 5.54885e-11, global = -4.72699e-12, cumulative = 7.24347e-11
ExecutionTime = 0.109745 s  ClockTime = 0 s

Courant Number mean: 0.0145902 max: 0.0950785
Time = 0.3s

PIMPLE: Iteration 1
GAMG:  Solving for p, Initial residual = 0.00480866, Final residual = 3.36523e-07, No Iterations 6
time step continuity errors : sum local = 2.6378e-11, global = 2.92556e-12
PIMPLE: Iteration 2
GAMG:  Solving for p, Initial residual = 0.00254487, Final residual = 5.85794e-07, No Iterations 5
time step continuity errors : sum local = 4.5788e-11, global = -1.20297e-11
PIMPLE: Iteration 3
GAMG:  Solving for p, Initial residual = 0.0003109, Final residual = 8.68714e-07, No Iterations 3
time step continuity errors : sum local = 6.78909e-11, global = -8.66388e-12
PIMPLE: Iteration 4
GAMG:  Solving for p, Initial residual = 4.54613e-05, Final residual = 2.9973e-07, No Iterations 3
time step continuity errors : sum local = 2.34268e-11, global = 4.07105e-12
PIMPLE: Iteration 5
GAMG:  Solving for p, Initial residual = 1.16652e-05, Final residual = 7.17298e-07, No Iterations 1
time step continuity errors : sum local = 5.60627e-11, global = -4.82231e-12, cumulative = 6.76124e-11
ExecutionTime = 0.112613 s  ClockTime = 0 s

volFieldValue UminMag write:
    minMag(all) of U = 0.0138209 at location (1.03411 -0.081386 -2.37561e-17) in cell 295

volFieldValue UmaxMag write:
    maxMag(all) of U = 2.94427 at location (0.0938954 -1.19305 -4.07481e-17) in cell 252

volFieldValue pMin write:
    min(all) of p = -2.97656 at location (0.081386 -1.03411 -2.22138e-17) in cell 250

volFieldValue pMax write:
    max(all) of p = 1.7712 at location (-1.03411 -0.081386 2.45533e-17) in cell 369

End

[rom_precheck] t=0.4 u_max=6.54754 (limit 10) p_abs_gaugeRemoved=1382.24 (limit 50)

[cmd] (cwd=/home/kalel1938/Documents/codex_projects/adaptive_model_reduction/results/low/adaptive/adaptive_case) foamRun -solver incompressibleFluid
/*---------------------------------------------------------------------------*\
  =========                 |
  \\      /  F ield         | OpenFOAM: The Open Source CFD Toolbox
   \\    /   O peration     | Website:  https://openfoam.org
    \\  /    A nd           | Version:  13
     \\/     M anipulation  |
\*---------------------------------------------------------------------------*/
Build  : 13-cde978a97c93
Exec   : foamRun -solver incompressibleFluid
Date   : Dec 19 2025
Time   : 23:31:48
Host   : "kalel1938-asus"
PID    : 918155
I/O    : uncollated
Case   : /home/kalel1938/Documents/codex_projects/adaptive_model_reduction/results/low/adaptive/adaptive_case
nProcs : 1
sigFpe : Enabling floating point exception trapping (FOAM_SIGFPE).
fileModificationChecking : Monitoring run-time modified files using timeStampMaster (fileModificationSkew 10)
allowSystemOperations : Allowing user-supplied system call operations

// * * * * * * * * * * * * * * * * * * * * * * * * * * * * * * * * * * * * * //
Create time

Create mesh for time = 0.3

Selecting solver incompressibleFluid
Selecting viscosity model constant
Selecting turbulence model type laminar
    Selecting laminar stress model Stokes
No MRF models present

Courant Number mean: 0.0145913 max: 0.0953324

PIMPLE: No convergence criteria found


PIMPLE: No corrector convergence criteria found
        Calculations will do 5 corrections


PIMPLE: Operating solver in transient mode with 5 outer correctors



Starting time loop

volFieldValue UminMag read:
    number of cells = 440
    volume = 73.7426
    operation = minMag

volFieldValue UmaxMag read:
    number of cells = 440
    volume = 73.7426
    operation = maxMag

volFieldValue pMin read:
    number of cells = 440
    volume = 73.7426
    operation = min

volFieldValue pMax read:
    number of cells = 440
    volume = 73.7426
    operation = max

volFieldValue UminMag write:
    minMag(all) of U = 0.0138209 at location (1.03411 -0.081386 -2.37561e-17) in cell 295

volFieldValue UmaxMag write:
    maxMag(all) of U = 2.94426 at location (0.0938954 -1.19305 -4.07481e-17) in cell 252

volFieldValue pMin write:
    min(all) of p = -2.97656 at location (0.081386 -1.03411 -2.22138e-17) in cell 250

volFieldValue pMax write:
    max(all) of p = 1.7712 at location (-1.03411 -0.081386 2.45533e-17) in cell 369

Courant Number mean: 0.0145913 max: 0.0953324
Time = 0.305s

PIMPLE: Iteration 1
GAMG:  Solving for p, Initial residual = 0.0047024, Final residual = 3.30549e-07, No Iterations 6
time step continuity errors : sum local = 2.57802e-11, global = 2.79083e-12
PIMPLE: Iteration 2
GAMG:  Solving for p, Initial residual = 0.00253498, Final residual = 5.94448e-07, No Iterations 5
time step continuity errors : sum local = 4.62394e-11, global = -1.22154e-11
PIMPLE: Iteration 3
GAMG:  Solving for p, Initial residual = 0.000312519, Final residual = 8.7666e-07, No Iterations 3
time step continuity errors : sum local = 6.81848e-11, global = -8.78094e-12
PIMPLE: Iteration 4
GAMG:  Solving for p, Initial residual = 4.59328e-05, Final residual = 3.04293e-07, No Iterations 3
time step continuity errors : sum local = 2.36699e-11, global = 4.0634e-12
PIMPLE: Iteration 5
GAMG:  Solving for p, Initial residual = 1.18139e-05, Final residual = 7.2953e-07, No Iterations 1
time step continuity errors : sum local = 5.67465e-11, global = -4.89636e-12, cumulative = -4.89636e-12
ExecutionTime = 0.103067 s  ClockTime = 0 s

Courant Number mean: 0.0145924 max: 0.0955822
Time = 0.31s

PIMPLE: Iteration 1
GAMG:  Solving for p, Initial residual = 0.00460386, Final residual = 3.25374e-07, No Iterations 6
time step continuity errors : sum local = 2.52591e-11, global = 2.71098e-12
PIMPLE: Iteration 2
GAMG:  Solving for p, Initial residual = 0.00252042, Final residual = 6.03312e-07, No Iterations 5
time step continuity errors : sum local = 4.67197e-11, global = -1.23834e-11
PIMPLE: Iteration 3
GAMG:  Solving for p, Initial residual = 0.000314091, Final residual = 8.81635e-07, No Iterations 3
time step continuity errors : sum local = 6.8267e-11, global = -8.90886e-12
PIMPLE: Iteration 4
GAMG:  Solving for p, Initial residual = 4.66446e-05, Final residual = 3.09155e-07, No Iterations 3
time step continuity errors : sum local = 2.39412e-11, global = 4.06222e-12
PIMPLE: Iteration 5
GAMG:  Solving for p, Initial residual = 1.19752e-05, Final residual = 7.39479e-07, No Iterations 1
time step continuity errors : sum local = 5.72647e-11, global = -5.01142e-12, cumulative = -9.90778e-12
ExecutionTime = 0.108715 s  ClockTime = 0 s

Courant Number mean: 0.0145936 max: 0.0958277
Time = 0.315s

PIMPLE: Iteration 1
GAMG:  Solving for p, Initial residual = 0.00447997, Final residual = 3.21047e-07, No Iterations 6
time step continuity errors : sum local = 2.48139e-11, global = 2.61074e-12
PIMPLE: Iteration 2
GAMG:  Solving for p, Initial residual = 0.00251101, Final residual = 6.11296e-07, No Iterations 5
time step continuity errors : sum local = 4.71339e-11, global = -1.25794e-11
PIMPLE: Iteration 3
GAMG:  Solving for p, Initial residual = 0.000315447, Final residual = 8.89109e-07, No Iterations 3
time step continuity errors : sum local = 6.85495e-11, global = -9.02928e-12
PIMPLE: Iteration 4
GAMG:  Solving for p, Initial residual = 4.71763e-05, Final residual = 3.13218e-07, No Iterations 3
time step continuity errors : sum local = 2.41515e-11, global = 4.03866e-12
PIMPLE: Iteration 5
[...]
time step continuity errors : sum local = 1.12951e-10, global = -2.44284e-11
PIMPLE: Iteration 5
GAMG:  Solving for p, Initial residual = 0.000148654, Final residual = 7.48214e-07, No Iterations 3
time step continuity errors : sum local = 1.6161e-10, global = -5.80144e-12, cumulative = -5.80144e-12
ExecutionTime = 0.266746 s  ClockTime = 0 s

End

[rom_precheck] t=10 u_max=7.43376 (limit 10) p_abs_gaugeRemoved=1426.65 (limit 50)

[cmd] (cwd=/home/kalel1938/Documents/codex_projects/adaptive_model_reduction/results/low/adaptive/adaptive_case) foamRun -solver incompressibleFluid
/*---------------------------------------------------------------------------*\
  =========                 |
  \\      /  F ield         | OpenFOAM: The Open Source CFD Toolbox
   \\    /   O peration     | Website:  https://openfoam.org
    \\  /    A nd           | Version:  13
     \\/     M anipulation  |
\*---------------------------------------------------------------------------*/
Build  : 13-cde978a97c93
Exec   : foamRun -solver incompressibleFluid
Date   : Dec 19 2025
Time   : 23:38:31
Host   : "kalel1938-asus"
PID    : 918859
I/O    : uncollated
Case   : /home/kalel1938/Documents/codex_projects/adaptive_model_reduction/results/low/adaptive/adaptive_case
nProcs : 1
sigFpe : Enabling floating point exception trapping (FOAM_SIGFPE).
fileModificationChecking : Monitoring run-time modified files using timeStampMaster (fileModificationSkew 10)
allowSystemOperations : Allowing user-supplied system call operations

// * * * * * * * * * * * * * * * * * * * * * * * * * * * * * * * * * * * * * //
Create time

Create mesh for time = 9.925

Selecting solver incompressibleFluid
Selecting viscosity model constant
Selecting turbulence model type laminar
    Selecting laminar stress model Stokes
No MRF models present

Courant Number mean: 0.0171491 max: 0.111294

PIMPLE: No convergence criteria found


PIMPLE: No corrector convergence criteria found
        Calculations will do 5 corrections


PIMPLE: Operating solver in transient mode with 5 outer correctors



Starting time loop

volFieldValue UminMag read:
    number of cells = 440
    volume = 73.7426
    operation = minMag

volFieldValue UmaxMag read:
    number of cells = 440
    volume = 73.7426
    operation = maxMag

volFieldValue pMin read:
    number of cells = 440
    volume = 73.7426
    operation = min

volFieldValue pMax read:
    number of cells = 440
    volume = 73.7426
    operation = max

volFieldValue UminMag write:
    minMag(all) of U = 0.0143463 at location (0.884448 0.541991 6.8955e-17) in cell 40

volFieldValue UmaxMag write:
    maxMag(all) of U = 2.8561 at location (2.19296 1.44296 2.06404e-17) in cell 81

volFieldValue pMin write:
    min(all) of p = -1.98346 at location (4.60821 0.893091 -6.33157e-17) in cell 74

volFieldValue pMax write:
    max(all) of p = 3.90719 at location (-1.00864 -0.242154 0) in cell 364

Courant Number mean: 0.0171491 max: 0.111294
Time = 9.93s

PIMPLE: Iteration 1
GAMG:  Solving for p, Initial residual = 0.350023, Final residual = 4.36876e-07, No Iterations 9
time step continuity errors : sum local = 7.44286e-11, global = 2.70935e-11
PIMPLE: Iteration 2
GAMG:  Solving for p, Initial residual = 0.0447196, Final residual = 5.03393e-07, No Iterations 7
time step continuity errors : sum local = 5.89511e-11, global = -3.17455e-12
PIMPLE: Iteration 3
GAMG:  Solving for p, Initial residual = 0.0055423, Final residual = 4.45804e-07, No Iterations 6
time step continuity errors : sum local = 5.20378e-11, global = 4.8993e-12
PIMPLE: Iteration 4
GAMG:  Solving for p, Initial residual = 0.00115367, Final residual = 5.27966e-07, No Iterations 5
time step continuity errors : sum local = 6.16129e-11, global = 7.49424e-14
PIMPLE: Iteration 5
GAMG:  Solving for p, Initial residual = 0.000267514, Final residual = 6.64885e-07, No Iterations 4
time step continuity errors : sum local = 7.75942e-11, global = -1.39547e-11, cumulative = -1.39547e-11
ExecutionTime = 0.242913 s  ClockTime = 0 s

Courant Number mean: 0.017128 max: 0.111462
Time = 9.935s

PIMPLE: Iteration 1
GAMG:  Solving for p, Initial residual = 0.119241, Final residual = 6.66722e-07, No Iterations 8
time step continuity errors : sum local = 7.38997e-11, global = 2.21949e-11
PIMPLE: Iteration 2
GAMG:  Solving for p, Initial residual = 0.00951517, Final residual = 8.31652e-07, No Iterations 6
time step continuity errors : sum local = 8.44397e-11, global = -4.69508e-12
PIMPLE: Iteration 3
GAMG:  Solving for p, Initial residual = 0.00128143, Final residual = 6.65773e-07, No Iterations 5
time step continuity errors : sum local = 6.73416e-11, global = 9.36702e-12
PIMPLE: Iteration 4
GAMG:  Solving for p, Initial residual = 0.000269222, Final residual = 9.51292e-07, No Iterations 3
time step continuity errors : sum local = 9.61487e-11, global = 1.55212e-11
PIMPLE: Iteration 5
GAMG:  Solving for p, Initial residual = 4.96064e-05, Final residual = 2.91953e-07, No Iterations 3
time step continuity errors : sum local = 2.95069e-11, global = 5.59699e-12, cumulative = -8.35774e-12
ExecutionTime = 0.250271 s  ClockTime = 0 s

Courant Number mean: 0.0171141 max: 0.111605
Time = 9.94s

PIMPLE: Iteration 1
GAMG:  Solving for p, Initial residual = 0.0492958, Final residual = 5.01781e-07, No Iterations 8
time step continuity errors : sum local = 4.95037e-11, global = 2.10236e-11
PIMPLE: Iteration 2
GAMG:  Solving for p, Initial residual = 0.00454566, Final residual = 4.81063e-07, No Iterations 6
time step continuity errors : sum local = 4.57098e-11, global = -2.23283e-12
PIMPLE: Iteration 3
GAMG:  Solving for p, Initial residual = 0.000564865, Final residual = 4.23807e-07, No Iterations 5
time step continuity errors : sum local = 4.01968e-11, global = 6.41483e-12
PIMPLE: Iteration 4
GAMG:  Solving for p, Initial residual = 0.000136884, Final residual = 4.28737e-07, No Iterations 3
time step continuity errors : sum local = 4.06449e-11, global = 7.82419e-12
PIMPLE: Iteration 5
GAMG:  Solving for p, Initial residual = 2.33612e-05, Final residual = 7.51298e-07, No Iterations 2
time step continuity errors : sum local = 7.12216e-11, global = 1.29133e-11, cumulative = 4.55554e-12
ExecutionTime = 0.254537 s  ClockTime = 0 s

Courant Number mean: 0.0171046 max: 0.111734
Time = 9.945s

PIMPLE: Iteration 1
GAMG:  Solving for p, Initial residual = 0.0317357, Final residual = 2.90116e-07, No Iterations 8
time step continuity errors : sum local = 2.70528e-11, global = 6.47569e-12
PIMPLE: Iteration 2
GAMG:  Solving for p, Initial residual = 0.00300008, Final residual = 8.24965e-07, No Iterations 5
time step continuity errors : sum local = 7.51372e-11, global = 3.05386e-11
PIMPLE: Iteration 3
GAMG:  Solving for p, Initial residual = 0.000431839, Final residual = 3.18614e-07, No Iterations 5
time step continuity errors : sum local = 2.89792e-11, global = 3.28204e-12
PIMPLE: Iteration 4
GAMG:  Solving for p, Initial residual = 0.000101437, Final residual = 5.07347e-07, No Iterations 3
time step continuity errors : sum local = 4.61317e-11, global = 5.63284e-12
PIMPLE: Iteration 5
GAMG:  Solving for p, Initial residual = 2.01981e-05, Final residual = 5.91145e-07, No Iterations 2
time step continuity errors : sum local = 5.3749e-11, global = 1.26084e-11, cumulative = 1.71639e-11
ExecutionTime = 0.258872 s  ClockTime = 0 s

Courant Number mean: 0.0170983 max: 0.111854
Time = 9.95s

PIMPLE: Iteration 1
GAMG:  Solving for p, Initial residual = 0.0228786, Final residual = 6.55663e-07, No Iterations 7
time step continuity errors : sum local = 5.88925e-11, global = 2.32459e-11
PIMPLE: Iteration 2
GAMG:  Solving for p, Initial residual = 0.00240039, Final residual = 8.4623e-07, No Iterations 5
time step continuity errors : sum local = 7.48141e-11, global = 1.83227e-11
PIMPLE: Iteration 3
GAMG:  Solving for p, Initial residual = 0.000364183, Final residual = 7.54642e-07, No Iterations 4
time step continuity errors : sum local = 6.6645e-11, global = 1.61275e-11
PIMPLE: Iteration 4
GAMG:  Solving for p, Initial residual = 7.5755e-05, Final residual = 5.18206e-07, No Iterations 3
time step continuity errors : sum local = 4.57546e-11, global = 5.3031e-12
PIMPLE: Iteration 5
GAMG:  Solving for p, Initial residual = 1.69274e-05, Final residual = 4.51653e-07, No Iterations 2
time step continuity errors : sum local = 3.98766e-11, global = 1.06013e-11, cumulative = 2.77652e-11
ExecutionTime = 0.265237 s  ClockTime = 0 s

Courant Number mean: 0.0170938 max: 0.111966
Time = 9.955s

PIMPLE: Iteration 1
GAMG:  Solving for p, Initial residual = 0.0201739, Final residual = 5.03217e-07, No Iterations 7
time step continuity errors : sum local = 4.40229e-11, global = 2.0973e-11
PIMPLE: Iteration 2
GAMG:  Solving for p, Initial residual = 0.00207731, Final residual = 8.52778e-07, No Iterations 5
time step continuity errors : sum local = 7.37469e-11, global = 1.3416e-11
PIMPLE: Iteration 3
GAMG:  Solving for p, Initial residual = 0.000319529, Final residual = 5.71922e-07, No Iterations 4
time step continuity errors : sum local = 4.94167e-11, global = 1.04826e-11
PIMPLE: Iteration 4
GAMG:  Solving for p, Initial residual = 6.22226e-05, Final residual = 4.81528e-07, No Iterations 3
time step continuity errors : sum local = 4.15992e-11, global = 4.97783e-12
PIMPLE: Iteration 5
GAMG:  Solving for p, Initial residual = 1.46778e-05, Final residual = 3.59284e-07, No Iterations 2
time step continuity errors : sum local = 3.10372e-11, global = 8.72536e-12, cumulative = 3.64906e-11
ExecutionTime = 0.269433 s  ClockTime = 0 s

Courant Number mean: 0.0170916 max: 0.112072
Time = 9.96s

PIMPLE: Iteration 1
GAMG:  Solving for p, Initial residual = 0.0176672, Final residual = 3.07477e-07, No Iterations 7
time step continuity errors : sum local = 2.63823e-11, global = 1.19212e-11
PIMPLE: Iteration 2
GAMG:  Solving for p, Initial residual = 0.00204799, Final residual = 8.34562e-07, No Iterations 5
time step continuity errors : sum local = 7.10162e-11, global = 1.54539e-11
PIMPLE: Iteration 3
GAMG:  Solving for p, Initial residual = 0.000294421, Final residual = 4.96696e-07, No Iterations 4
time step continuity errors : sum local = 4.22434e-11, global = 4.74923e-12
PIMPLE: Iteration 4
GAMG:  Solving for p, Initial residual = 5.61086e-05, Final residual = 4.49149e-07, No Iterations 3
time step continuity errors : sum local = 3.81948e-11, global = 4.71128e-12
PIMPLE: Iteration 5
GAMG:  Solving for p, Initial residual = 1.35445e-05, Final residual = 3.16799e-07, No Iterations 2
time step continuity errors : sum local = 2.69391e-11, global = 6.84199e-12, cumulative = 4.33326e-11
ExecutionTime = 0.273556 s  ClockTime = 0 s

Courant Number mean: 0.0170909 max: 0.112172
Time = 9.965s

PIMPLE: Iteration 1
GAMG:  Solving for p, Initial residual = 0.0128428, Final residual = 2.5855e-07, No Iterations 7
time step continuity errors : sum local = 2.18915e-11, global = 1.09501e-11
PIMPLE: Iteration 2
GAMG:  Solving for p, Initial residual = 0.00187692, Final residual = 7.91612e-07, No Iterations 5
time step continuity errors : sum local = 6.66612e-11, global = 1.173e-11
PIMPLE: Iteration 3
GAMG:  Solving for p, Initial residual = 0.000275289, Final residual = 3.78468e-07, No Iterations 4
time step continuity errors : sum local = 3.18553e-11, global = 3.08309e-12
PIMPLE: Iteration 4
GAMG:  Solving for p, Initial residual = 5.1293e-05, Final residual = 4.02569e-07, No Iterations 3
time step continuity errors : sum local = 3.38802e-11, global = 4.23663e-12
PIMPLE: Iteration 5
GAMG:  Solving for p, Initial residual = 1.20454e-05, Final residual = 2.80677e-07, No Iterations 2
time step continuity errors : sum local = 2.3621e-11, global = 4.8235e-12, cumulative = 4.81561e-11
ExecutionTime = 0.278605 s  ClockTime = 0 s

Courant Number mean: 0.0170908 max: 0.112269
Time = 9.97s

PIMPLE: Iteration 1
GAMG:  Solving for p, Initial residual = 0.011368, Final residual = 7.00487e-07, No Iterations 6
time step continuity errors : sum local = 5.87921e-11, global = 2.68061e-12
PIMPLE: Iteration 2
GAMG:  Solving for p, Initial residual = 0.0018826, Final residual = 7.82531e-07, No Iterations 5
time step continuity errors : sum local = 6.54542e-11, global = 1.15362e-11
PIMPLE: Iteration 3
GAMG:  Solving for p, Initial residual = 0.000279637, Final residual = 2.70466e-07, No Iterations 4
time step continuity errors : sum local = 2.26148e-11, global = 2.47946e-13
PIMPLE: Iteration 4
GAMG:  Solving for p, Initial residual = 4.85453e-05, Final residual = 9.49924e-07, No Iterations 2
time step continuity errors : sum local = 7.94208e-11, global = 2.59811e-11
PIMPLE: Iteration 5
GAMG:  Solving for p, Initial residual = 1.1096e-05, Final residual = 3.0962e-07, No Iterations 2
time step continuity errors : sum local = 2.58857e-11, global = 5.82016e-12, cumulative = 5.39762e-11
ExecutionTime = 0.284325 s  ClockTime = 0 s

volFieldValue UminMag write:
    minMag(all) of U = 0.00960043 at location (1.03411 0.081386 0) in cell 25

volFieldValue UmaxMag write:
    maxMag(all) of U = 2.90033 at location (2.19296 1.44296 2.06404e-17) in cell 81

volFieldValue pMin write:
    min(all) of p = -1.84822 at location (0.242154 -1.00864 -2.2985e-17) in cell 255

volFieldValue pMax write:
    max(all) of p = 2.13233 at location (-1.03411 -0.081386 2.45533e-17) in cell 369

Courant Number mean: 0.0170913 max: 0.112362
Time = 9.975s

PIMPLE: Iteration 1
GAMG:  Solving for p, Initial residual = 0.010507, Final residual = 5.83236e-07, No Iterations 6
time step continuity errors : sum local = 4.86943e-11, global = 9.36798e-12
PIMPLE: Iteration 2
GAMG:  Solving for p, Initial residual = 0.00203208, Final residual = 8.90445e-07, No Iterations 5
time step continuity errors : sum local = 7.42384e-11, global = 1.27976e-11
PIMPLE: Iteration 3
GAMG:  Solving for p, Initial residual = 0.000322983, Final residual = 7.86177e-07, No Iterations 3
time step continuity errors : sum local = 6.55385e-11, global = -1.38031e-11
PIMPLE: Iteration 4
GAMG:  Solving for p, Initial residual = 5.03344e-05, Final residual = 8.28972e-07, No Iterations 2
time step continuity errors : sum local = 6.91021e-11, global = 2.52752e-11
PIMPLE: Iteration 5
GAMG:  Solving for p, Initial residual = 1.07745e-05, Final residual = 2.5195e-07, No Iterations 2
time step continuity errors : sum local = 2.10016e-11, global = 4.26529e-12, cumulative = 5.82415e-11
ExecutionTime = 0.288406 s  ClockTime = 0 s

Courant Number mean: 0.0170922 max: 0.112452
Time = 9.98s

PIMPLE: Iteration 1
GAMG:  Solving for p, Initial residual = 0.00906599, Final residual = 2.5714e-07, No Iterations 7
time step continuity errors : sum local = 2.1379e-11, global = 1.02219e-11
PIMPLE: Iteration 2
GAMG:  Solving for p, Initial residual = 0.00183235, Final residual = 3.88796e-07, No Iterations 5
time step continuity errors : sum local = 3.22087e-11, global = 7.55398e-12
PIMPLE: Iteration 3
GAMG:  Solving for p, Initial residual = 0.000205045, Final residual = 3.30936e-07, No Iterations 4
time step continuity errors : sum local = 2.73969e-11, global = 3.39523e-12
PIMPLE: Iteration 4
GAMG:  Solving for p, Initial residual = 4.59005e-05, Final residual = 7.7159e-07, No Iterations 2
time step continuity errors : sum local = 6.3872e-11, global = 1.54614e-11
PIMPLE: Iteration 5
GAMG:  Solving for p, Initial residual = 9.54386e-06, Final residual = 3.06124e-07, No Iterations 2
time step continuity errors : sum local = 2.53404e-11, global = 7.15169e-12, cumulative = 6.53932e-11
ExecutionTime = 0.292719 s  ClockTime = 0 s

Courant Number mean: 0.0170935 max: 0.112538
Time = 9.985s

PIMPLE: Iteration 1
GAMG:  Solving for p, Initial residual = 0.00838279, Final residual = 2.63037e-07, No Iterations 7
time step continuity errors : sum local = 2.17196e-11, global = 9.49638e-12
PIMPLE: Iteration 2
GAMG:  Solving for p, Initial residual = 0.00189287, Final residual = 3.2996e-07, No Iterations 5
time step continuity errors : sum local = 2.71513e-11, global = 6.90968e-12
PIMPLE: Iteration 3
GAMG:  Solving for p, Initial residual = 0.000205268, Final residual = 3.28784e-07, No Iterations 4
time step continuity errors : sum local = 2.70356e-11, global = 3.47056e-12
PIMPLE: Iteration 4
GAMG:  Solving for p, Initial residual = 4.58847e-05, Final residual = 7.34805e-07, No Iterations 2
time step continuity errors : sum local = 6.04178e-11, global = 1.14615e-11
PIMPLE: Iteration 5
GAMG:  Solving for p, Initial residual = 9.29788e-06, Final residual = 2.89008e-07, No Iterations 2
time step continuity errors : sum local = 2.37627e-11, global = 6.85541e-12, cumulative = 7.22486e-11
ExecutionTime = 0.299749 s  ClockTime = 0 s

Courant Number mean: 0.0170952 max: 0.112621
Time = 9.99s

PIMPLE: Iteration 1
GAMG:  Solving for p, Initial residual = 0.00722279, Final residual = 7.75631e-07, No Iterations 6
time step continuity errors : sum local = 6.36633e-11, global = 1.90515e-12
PIMPLE: Iteration 2
GAMG:  Solving for p, Initial residual = 0.00170204, Final residual = 3.44941e-07, No Iterations 5
time step continuity errors : sum local = 2.82472e-11, global = 5.15854e-12
PIMPLE: Iteration 3
GAMG:  Solving for p, Initial residual = 0.000191723, Final residual = 2.82426e-07, No Iterations 4
time step continuity errors : sum local = 2.31157e-11, global = -8.69093e-13
PIMPLE: Iteration 4
GAMG:  Solving for p, Initial residual = 4.17637e-05, Final residual = 6.2592e-07, No Iterations 2
time step continuity errors : sum local = 5.12268e-11, global = 1.15213e-11
PIMPLE: Iteration 5
GAMG:  Solving for p, Initial residual = 8.41127e-06, Final residual = 9.84551e-07, No Iterations 1
time step continuity errors : sum local = 8.05768e-11, global = 8.99543e-12, cumulative = 8.1244e-11
ExecutionTime = 0.304575 s  ClockTime = 0 s

Courant Number mean: 0.0170973 max: 0.112701
Time = 9.995s

PIMPLE: Iteration 1
GAMG:  Solving for p, Initial residual = 0.00675322, Final residual = 5.23292e-07, No Iterations 6
time step continuity errors : sum local = 4.27647e-11, global = 2.91914e-12
PIMPLE: Iteration 2
GAMG:  Solving for p, Initial residual = 0.00163981, Final residual = 3.7651e-07, No Iterations 5
time step continuity errors : sum local = 3.07139e-11, global = 4.85274e-12
PIMPLE: Iteration 3
GAMG:  Solving for p, Initial residual = 0.000196652, Final residual = 8.66678e-07, No Iterations 3
time step continuity errors : sum local = 7.06678e-11, global = -1.41595e-11
PIMPLE: Iteration 4
GAMG:  Solving for p, Initial residual = 4.05808e-05, Final residual = 6.59807e-07, No Iterations 2
time step continuity errors : sum local = 5.37971e-11, global = 8.2942e-12
PIMPLE: Iteration 5
GAMG:  Solving for p, Initial residual = 8.27814e-06, Final residual = 9.8538e-07, No Iterations 1
time step continuity errors : sum local = 8.03413e-11, global = 5.19246e-12, cumulative = 8.64365e-11
ExecutionTime = 0.308877 s  ClockTime = 0 s

Courant Number mean: 0.0170995 max: 0.112778
Time = 10s

PIMPLE: Iteration 1
GAMG:  Solving for p, Initial residual = 0.00609669, Final residual = 4.92264e-07, No Iterations 6
time step continuity errors : sum local = 4.01056e-11, global = 5.8543e-12
PIMPLE: Iteration 2
GAMG:  Solving for p, Initial residual = 0.0015986, Final residual = 3.28558e-07, No Iterations 5
time step continuity errors : sum local = 2.67406e-11, global = 3.99578e-12
PIMPLE: Iteration 3
GAMG:  Solving for p, Initial residual = 0.000183288, Final residual = 7.3741e-07, No Iterations 3
time step continuity errors : sum local = 5.99923e-11, global = -1.34916e-11
PIMPLE: Iteration 4
GAMG:  Solving for p, Initial residual = 3.81495e-05, Final residual = 5.74069e-07, No Iterations 2
time step continuity errors : sum local = 4.67014e-11, global = 4.7057e-12
PIMPLE: Iteration 5
GAMG:  Solving for p, Initial residual = 7.47797e-06, Final residual = 8.7534e-07, No Iterations 1
time step continuity errors : sum local = 7.12092e-11, global = 2.01959e-12, cumulative = 8.84561e-11
ExecutionTime = 0.316168 s  ClockTime = 0 s

End

